/*--------------------------------*- C++ -*----------------------------------*\
| =========                 |                                                 |
| \\      /  F ield         | OpenFOAM: The Open Source CFD Toolbox           |
|  \\    /   O peration     | Version:  2312                                  |
|   \\  /    A nd           | Website:  www.openfoam.com                      |
|    \\/     M anipulation  |                                                 |
\*---------------------------------------------------------------------------*/
FoamFile
{
    version     2.0;
    format      ascii;
    arch        "LSB;label=32;scalar=64";
    class       featureEdgeMesh;
    location    "constant/triSurface";
    object      atmosphere.eMesh;
}
// * * * * * * * * * * * * * * * * * * * * * * * * * * * * * * * * * * * * * //


// points:

222
(
(-380.044 -1553.59 1130.29)
(-363.915 -1553.59 1130.29)
(-347.786 -1553.59 1130.29)
(-331.657 -1553.59 1130.29)
(-380.044 -1476.03 1130.29)
(-380.044 -1501.88 1130.29)
(-380.044 -1527.74 1130.29)
(-315.528 -1553.59 1130.29)
(-299.399 -1553.59 1130.29)
(-283.271 -1553.59 1130.29)
(-380.044 -1424.33 1130.29)
(-380.044 -1450.18 1130.29)
(-267.142 -1553.59 1130.29)
(-251.013 -1553.59 1130.29)
(-380.044 -1372.63 1130.29)
(-380.044 -1398.48 1130.29)
(-380.044 -1320.92 1130.29)
(-380.044 -1346.78 1130.29)
(-380.044 -1269.22 1130.29)
(-380.044 -1295.07 1130.29)
(-380.044 -1191.67 1130.29)
(-380.044 -1217.52 1130.29)
(-380.044 -1243.37 1130.29)
(-380.044 -1165.81 1130.29)
(-234.884 -1553.59 1130.29)
(-218.755 -1553.59 1130.29)
(-202.626 -1553.59 1130.29)
(-186.497 -1553.59 1130.29)
(-380.044 -1139.96 1130.29)
(-380.044 -1062.41 1130.29)
(-380.044 -1088.26 1130.29)
(-380.044 -1114.11 1130.29)
(-380.044 -1010.7 1130.29)
(-380.044 -1036.56 1130.29)
(-380.044 -933.15 1130.29)
(-380.044 -959.002 1130.29)
(-380.044 -984.853 1130.29)
(-170.368 -1553.59 1130.29)
(-154.239 -1553.59 1130.29)
(-138.11 -1553.59 1130.29)
(-380.044 -881.447 1130.29)
(-380.044 -907.298 1130.29)
(-121.981 -1553.59 1130.29)
(-380.044 -829.744 1130.29)
(-380.044 -855.595 1130.29)
(-105.853 -1553.59 1130.29)
(-380.044 -778.041 1130.29)
(-380.044 -803.892 1130.29)
(-89.7236 -1553.59 1130.29)
(-73.5947 -1553.59 1130.29)
(-57.4658 -1553.59 1130.29)
(-380.044 -726.337 1130.29)
(-380.044 -752.189 1130.29)
(-41.3369 -1553.59 1130.29)
(-25.208 -1553.59 1130.29)
(-380.044 -674.634 1130.29)
(-380.044 -700.486 1130.29)
(-380.044 -622.931 1130.29)
(-380.044 -648.783 1130.29)
(-9.07913 -1553.59 1130.29)
(-380.044 -597.08 1130.29)
(-380.044 -545.377 1130.29)
(-380.044 -571.228 1130.29)
(-380.044 -493.673 1130.29)
(-380.044 -519.525 1130.29)
(-380.044 -416.119 1130.29)
(-380.044 -441.97 1130.29)
(-380.044 -467.822 1130.29)
(-380.044 -390.267 1130.29)
(7.04978 -1553.59 1130.29)
(23.1787 -1553.59 1130.29)
(39.3076 -1553.59 1130.29)
(55.4365 -1553.59 1130.29)
(71.5654 -1553.59 1130.29)
(87.6944 -1553.59 1130.29)
(103.823 -1553.59 1130.29)
(-380.044 -338.564 1130.29)
(-380.044 -364.415 1130.29)
(-380.044 -286.861 1130.29)
(-380.044 -261.009 1130.29)
(119.952 -1553.59 1130.29)
(136.081 -1553.59 1130.29)
(152.21 -1553.59 1130.29)
(-380.044 -235.158 1130.29)
(-380.044 -157.603 1130.29)
(-380.044 -183.455 1130.29)
(-380.044 -209.306 1130.29)
(168.339 -1553.59 1130.29)
(184.468 -1553.59 1130.29)
(-380.044 -105.9 1130.29)
(-380.044 -131.751 1130.29)
(200.597 -1553.59 1130.29)
(216.726 -1553.59 1130.29)
(232.855 -1553.59 1130.29)
(248.983 -1553.59 1130.29)
(265.112 -1553.59 1130.29)
(-380.044 -80.0483 1130.29)
(-363.915 -54.1968 1130.29)
(-380.044 -54.1968 1130.29)
(-347.786 -54.1968 1130.29)
(281.241 -1553.59 1130.29)
(297.37 -1553.59 1130.29)
(-331.657 -54.1968 1130.29)
(-315.528 -54.1968 1130.29)
(313.499 -1553.59 1130.29)
(-299.399 -54.1968 1130.29)
(-283.27 -54.1968 1130.29)
(329.628 -1553.59 1130.29)
(345.757 -1553.59 1130.29)
(361.886 -1553.59 1130.29)
(378.015 -1553.59 1130.29)
(394.144 -1553.59 1130.29)
(410.272 -1553.59 1130.29)
(-267.142 -54.1968 1130.29)
(-251.013 -54.1968 1130.29)
(426.401 -1553.59 1130.29)
(-234.884 -54.1968 1130.29)
(-218.755 -54.1968 1130.29)
(442.53 -1553.59 1130.29)
(458.659 -1553.59 1130.29)
(474.788 -1553.59 1130.29)
(474.788 -1527.74 1130.29)
(-202.626 -54.1968 1130.29)
(-186.497 -54.1968 1130.29)
(474.788 -1501.88 1130.29)
(-170.368 -54.1968 1130.29)
(-154.239 -54.1968 1130.29)
(474.788 -1476.03 1130.29)
(474.788 -1450.18 1130.29)
(474.788 -1424.33 1130.29)
(474.788 -1398.48 1130.29)
(474.788 -1372.63 1130.29)
(474.788 -1346.77 1130.29)
(-138.11 -54.1968 1130.29)
(-121.981 -54.1968 1130.29)
(474.788 -1320.92 1130.29)
(474.788 -1295.07 1130.29)
(474.788 -1269.22 1130.29)
(-105.853 -54.1968 1130.29)
(-89.7236 -54.1968 1130.29)
(474.788 -1243.37 1130.29)
(474.788 -1217.52 1130.29)
(474.788 -1191.67 1130.29)
(474.788 -1165.81 1130.29)
(474.788 -1139.96 1130.29)
(-73.5948 -54.1968 1130.29)
(474.788 -1114.11 1130.29)
(474.788 -1088.26 1130.29)
(474.788 -1062.41 1130.29)
(474.788 -1036.56 1130.29)
(474.788 -1010.7 1130.29)
(-57.4658 -54.1968 1130.29)
(-41.3369 -54.1968 1130.29)
(474.788 -984.853 1130.29)
(474.788 -959.001 1130.29)
(-25.208 -54.1968 1130.29)
(474.788 -933.15 1130.29)
(474.788 -907.298 1130.29)
(-9.07912 -54.1968 1130.29)
(474.788 -881.447 1130.29)
(474.788 -855.595 1130.29)
(474.788 -829.744 1130.29)
(474.788 -803.892 1130.29)
(7.04981 -54.1968 1130.29)
(474.788 -778.041 1130.29)
(474.788 -752.189 1130.29)
(474.788 -726.338 1130.29)
(474.788 -700.486 1130.29)
(474.788 -674.634 1130.29)
(474.788 -648.783 1130.29)
(474.788 -622.931 1130.29)
(474.788 -597.08 1130.29)
(474.788 -571.228 1130.29)
(474.788 -545.377 1130.29)
(474.788 -519.525 1130.29)
(474.788 -493.673 1130.29)
(474.788 -467.822 1130.29)
(23.1787 -54.1968 1130.29)
(39.3076 -54.1968 1130.29)
(55.4365 -54.1968 1130.29)
(71.5654 -54.1968 1130.29)
(474.788 -441.97 1130.29)
(474.788 -416.119 1130.29)
(87.6944 -54.1968 1130.29)
(474.788 -390.267 1130.29)
(474.788 -364.415 1130.29)
(103.823 -54.1968 1130.29)
(474.788 -338.564 1130.29)
(474.788 -312.712 1130.29)
(474.788 -286.861 1130.29)
(474.788 -261.009 1130.29)
(119.952 -54.1968 1130.29)
(474.788 -235.158 1130.29)
(474.788 -209.306 1130.29)
(474.788 -183.455 1130.29)
(474.788 -157.603 1130.29)
(474.788 -131.751 1130.29)
(136.081 -54.1968 1130.29)
(152.21 -54.1968 1130.29)
(474.788 -105.9 1130.29)
(168.339 -54.1968 1130.29)
(184.468 -54.1968 1130.29)
(474.788 -80.0483 1130.29)
(474.788 -54.1968 1130.29)
(458.659 -54.1968 1130.29)
(442.53 -54.1967 1130.29)
(426.401 -54.1968 1130.29)
(410.272 -54.1968 1130.29)
(394.144 -54.1967 1130.29)
(378.015 -54.1968 1130.29)
(200.597 -54.1968 1130.29)
(361.886 -54.1968 1130.29)
(216.726 -54.1968 1130.29)
(265.112 -54.1968 1130.29)
(248.983 -54.1967 1130.29)
(232.854 -54.1968 1130.29)
(345.757 -54.1968 1130.29)
(329.628 -54.1968 1130.29)
(281.241 -54.1968 1130.29)
(313.499 -54.1968 1130.29)
(297.37 -54.1968 1130.29)
(-380.044 -312.712 1130.29)
)


// edges:

441
(
(2 0)
(3 0)
(6 4)
(3 6)
(9 7)
(7 6)
(4 10)
(7 4)
(12 7)
(13 7)
(7 10)
(10 14)
(14 16)
(16 18)
(22 20)
(14 18)
(22 23)
(14 22)
(7 14)
(24 7)
(27 25)
(25 7)
(7 22)
(22 28)
(31 29)
(22 31)
(25 22)
(27 22)
(22 29)
(29 32)
(36 34)
(29 36)
(27 29)
(39 37)
(37 29)
(37 36)
(39 36)
(34 40)
(39 34)
(42 34)
(40 43)
(42 40)
(45 40)
(43 46)
(45 43)
(50 48)
(48 43)
(46 51)
(48 46)
(54 50)
(50 46)
(51 55)
(50 51)
(54 51)
(55 57)
(54 55)
(59 55)
(55 60)
(60 61)
(61 63)
(67 65)
(60 63)
(67 68)
(55 63)
(59 63)
(71 69)
(69 63)
(69 67)
(72 69)
(75 73)
(73 69)
(69 68)
(68 76)
(76 78)
(76 79)
(69 76)
(75 69)
(82 80)
(80 69)
(69 79)
(69 83)
(80 83)
(86 84)
(80 86)
(88 82)
(82 86)
(84 89)
(82 84)
(91 82)
(94 92)
(91 84)
(95 92)
(92 84)
(84 96)
(96 97)
(96 99)
(92 96)
(101 95)
(95 96)
(96 102)
(96 103)
(101 96)
(104 96)
(96 105)
(96 106)
(107 96)
(109 107)
(111 109)
(112 109)
(109 96)
(96 113)
(96 114)
(112 96)
(115 96)
(96 116)
(96 117)
(118 96)
(121 119)
(119 96)
(96 122)
(96 123)
(121 96)
(124 96)
(96 125)
(96 126)
(127 96)
(129 127)
(131 129)
(132 129)
(129 96)
(96 133)
(96 134)
(132 96)
(137 135)
(135 96)
(96 138)
(96 139)
(137 96)
(141 137)
(144 142)
(142 137)
(137 139)
(137 145)
(144 137)
(147 144)
(150 148)
(148 144)
(144 145)
(144 151)
(148 151)
(148 152)
(154 150)
(150 152)
(150 155)
(157 154)
(154 155)
(154 158)
(159 154)
(161 159)
(162 159)
(159 158)
(159 163)
(164 159)
(166 164)
(168 166)
(170 168)
(172 170)
(175 173)
(172 168)
(176 173)
(172 166)
(166 159)
(159 177)
(159 178)
(172 159)
(172 178)
(172 179)
(173 179)
(173 180)
(182 176)
(176 180)
(176 183)
(185 182)
(182 183)
(182 186)
(187 182)
(189 187)
(190 187)
(187 186)
(187 191)
(192 187)
(194 192)
(196 194)
(194 187)
(187 197)
(187 198)
(196 187)
(199 187)
(187 200)
(187 201)
(202 187)
(204 202)
(206 204)
(209 207)
(206 202)
(207 202)
(202 201)
(202 210)
(209 202)
(211 202)
(202 212)
(215 213)
(202 215)
(216 202)
(217 202)
(202 213)
(202 218)
(219 202)
(202 220)
(0 1)
(1 2)
(2 3)
(4 5)
(5 6)
(6 0)
(7 8)
(8 9)
(3 7)
(10 11)
(11 4)
(9 12)
(12 13)
(14 15)
(15 10)
(16 17)
(17 14)
(18 19)
(19 16)
(20 21)
(21 22)
(23 20)
(22 18)
(13 24)
(25 26)
(26 27)
(24 25)
(28 23)
(29 30)
(30 31)
(31 28)
(32 33)
(33 29)
(34 35)
(35 36)
(36 32)
(37 38)
(38 39)
(27 37)
(40 41)
(41 34)
(39 42)
(43 44)
(44 40)
(42 45)
(46 47)
(47 43)
(48 49)
(49 50)
(45 48)
(51 52)
(52 46)
(50 53)
(53 54)
(55 56)
(56 51)
(57 58)
(58 55)
(54 59)
(60 57)
(61 62)
(62 60)
(63 64)
(64 61)
(65 66)
(66 67)
(68 65)
(69 70)
(70 71)
(59 69)
(67 63)
(71 72)
(73 74)
(74 75)
(72 73)
(76 77)
(77 68)
(78 221)
(221 76)
(79 78)
(80 81)
(81 82)
(75 80)
(83 79)
(84 85)
(85 86)
(86 83)
(82 87)
(87 88)
(89 90)
(90 84)
(88 91)
(92 93)
(93 94)
(94 95)
(91 92)
(96 89)
(97 98)
(98 96)
(99 97)
(95 100)
(100 101)
(102 99)
(103 102)
(101 104)
(105 103)
(106 105)
(104 107)
(107 108)
(108 109)
(109 110)
(110 111)
(111 112)
(113 106)
(114 113)
(112 115)
(116 114)
(117 116)
(115 118)
(119 120)
(120 121)
(118 119)
(122 117)
(123 122)
(121 124)
(125 123)
(126 125)
(124 127)
(127 128)
(128 129)
(129 130)
(130 131)
(131 132)
(133 126)
(134 133)
(135 136)
(136 137)
(132 135)
(138 134)
(139 138)
(137 140)
(140 141)
(142 143)
(143 144)
(141 142)
(145 139)
(144 146)
(146 147)
(148 149)
(149 150)
(147 148)
(151 145)
(152 151)
(150 153)
(153 154)
(155 152)
(154 156)
(156 157)
(158 155)
(157 159)
(159 160)
(160 161)
(161 162)
(163 158)
(162 164)
(164 165)
(165 166)
(166 167)
(167 168)
(168 169)
(169 170)
(170 171)
(171 172)
(173 174)
(174 175)
(175 176)
(177 163)
(178 177)
(179 178)
(172 173)
(180 179)
(176 181)
(181 182)
(183 180)
(182 184)
(184 185)
(186 183)
(185 187)
(187 188)
(188 189)
(189 190)
(191 186)
(190 192)
(192 193)
(193 194)
(194 195)
(195 196)
(197 191)
(198 197)
(196 199)
(200 198)
(201 200)
(199 202)
(202 203)
(203 204)
(204 205)
(205 206)
(207 208)
(208 209)
(206 207)
(210 201)
(209 211)
(212 210)
(213 214)
(214 215)
(215 212)
(211 216)
(216 217)
(218 213)
(217 219)
(220 218)
(219 220)
)

// * * * * * * * * * * * * * * * * * * * * * * * * * * * * * * * * * * * * * //


// ************************************************************************* //
