/*--------------------------------*- C++ -*----------------------------------*\
| =========                 |                                                 |
| \\      /  F ield         | OpenFOAM: The Open Source CFD Toolbox           |
|  \\    /   O peration     | Version:  2312                                  |
|   \\  /    A nd           | Website:  www.openfoam.com                      |
|    \\/     M anipulation  |                                                 |
\*---------------------------------------------------------------------------*/
FoamFile
{
    version     2.0;
    format      ascii;
    arch        "LSB;label=32;scalar=64";
    class       featureEdgeMesh;
    location    "constant/triSurface";
    object      inlet.eMesh;
}
// * * * * * * * * * * * * * * * * * * * * * * * * * * * * * * * * * * * * * //


// points:

108
(
(-283.27 -54.1968 525.908)
(-283.27 -54.1968 1130.29)
(-267.142 -54.1968 1130.29)
(-267.142 -54.1968 524.258)
(-251.013 -54.1968 1130.29)
(-251.013 -54.1968 519.844)
(-234.884 -54.1968 1130.29)
(-234.884 -54.1968 511.532)
(-218.755 -54.1968 1130.29)
(-218.755 -54.1968 504.888)
(-202.626 -54.1968 1130.29)
(-202.626 -54.1968 492.611)
(-186.497 -54.1968 1130.29)
(-186.497 -54.1968 483.381)
(-170.368 -54.1968 1130.29)
(-170.368 -54.1968 477.057)
(-154.239 -54.1968 1130.29)
(-154.239 -54.1968 474.436)
(-138.11 -54.1968 1130.29)
(-138.11 -54.1968 461.098)
(-121.981 -54.1968 1130.29)
(-121.981 -54.1968 460.717)
(-105.853 -54.1968 1130.29)
(-105.853 -54.1968 460.173)
(-89.7236 -54.1968 1130.29)
(-89.7236 -54.1968 459.885)
(-73.5948 -54.1968 1130.29)
(-73.5948 -54.1968 459.418)
(-57.4658 -54.1968 1130.29)
(-57.4658 -54.1968 458.884)
(-41.3369 -54.1968 1130.29)
(-41.3369 -54.1968 460.9)
(-25.208 -54.1968 1130.29)
(-25.208 -54.1968 456.527)
(-9.07912 -54.1968 1130.29)
(-9.07912 -54.1968 459.499)
(7.04981 -54.1968 1130.29)
(7.04981 -54.1968 460.011)
(23.1787 -54.1968 1130.29)
(23.1787 -54.1968 460.366)
(39.3076 -54.1968 1130.29)
(39.3076 -54.1968 460.857)
(55.4365 -54.1968 1130.29)
(55.4365 -54.1968 461.455)
(71.5654 -54.1968 1130.29)
(71.5654 -54.1968 461.806)
(87.6944 -54.1968 1130.29)
(87.6944 -54.1968 461.99)
(103.823 -54.1968 1130.29)
(103.823 -54.1968 461.91)
(119.952 -54.1968 1130.29)
(119.952 -54.1968 461.376)
(136.081 -54.1968 1130.29)
(136.081 -54.1968 460.543)
(152.21 -54.1968 1130.29)
(152.21 -54.1968 462.732)
(168.339 -54.1968 1130.29)
(168.339 -54.1968 463.889)
(184.468 -54.1968 1130.29)
(184.468 -54.1968 463.927)
(200.597 -54.1968 1130.29)
(200.597 -54.1968 464.611)
(216.726 -54.1968 1130.29)
(216.726 -54.1968 476.168)
(232.854 -54.1968 1130.29)
(232.854 -54.1968 485.444)
(248.983 -54.1967 1130.29)
(248.983 -54.1967 502.696)
(265.112 -54.1968 1130.29)
(265.112 -54.1968 517.026)
(281.241 -54.1968 1130.29)
(281.241 -54.1968 529.576)
(297.37 -54.1968 1130.29)
(297.37 -54.1968 543.808)
(313.499 -54.1968 1130.29)
(313.499 -54.1968 560.196)
(329.628 -54.1968 1130.29)
(329.628 -54.1968 571.962)
(345.757 -54.1968 1130.29)
(345.757 -54.1968 583.969)
(361.886 -54.1968 1130.29)
(361.886 -54.1968 596.692)
(378.015 -54.1968 1130.29)
(378.015 -54.1968 610.251)
(394.144 -54.1967 1130.29)
(394.144 -54.1967 621.813)
(410.272 -54.1968 1130.29)
(410.272 -54.1968 629.667)
(426.401 -54.1968 1130.29)
(426.401 -54.1968 638.56)
(442.53 -54.1967 1130.29)
(442.53 -54.1967 651.813)
(458.659 -54.1968 1130.29)
(458.659 -54.1968 666.492)
(474.788 -54.1968 1130.29)
(474.788 -54.1968 684.877)
(-380.044 -54.1968 589.191)
(-380.044 -54.1968 1130.29)
(-363.915 -54.1968 1130.29)
(-363.915 -54.1968 576.815)
(-347.786 -54.1968 1130.29)
(-347.786 -54.1968 566.916)
(-331.657 -54.1968 1130.29)
(-331.657 -54.1968 553.18)
(-315.528 -54.1968 1130.29)
(-315.528 -54.1968 537.585)
(-299.399 -54.1968 1130.29)
(-299.399 -54.1968 530.658)
)


// edges:

213
(
(2 3)
(4 3)
(6 7)
(8 9)
(10 9)
(12 13)
(14 13)
(16 17)
(18 17)
(20 21)
(22 21)
(24 25)
(26 25)
(28 29)
(30 31)
(32 31)
(34 35)
(36 37)
(38 39)
(40 41)
(42 41)
(44 45)
(46 45)
(48 47)
(50 49)
(52 53)
(54 55)
(56 57)
(58 57)
(60 61)
(62 63)
(64 63)
(66 65)
(66 67)
(72 73)
(74 73)
(76 75)
(78 79)
(80 81)
(82 81)
(84 83)
(84 85)
(90 89)
(90 91)
(94 93)
(98 96)
(100 99)
(102 103)
(104 103)
(106 107)
(1 107)
(2 0)
(0 1)
(4 5)
(6 5)
(8 7)
(10 11)
(12 11)
(14 15)
(16 15)
(18 19)
(20 19)
(22 23)
(24 23)
(26 27)
(28 27)
(30 29)
(32 33)
(34 33)
(36 35)
(38 37)
(40 39)
(42 43)
(44 43)
(46 47)
(48 49)
(50 51)
(52 51)
(54 53)
(56 55)
(58 59)
(60 59)
(62 61)
(64 65)
(68 67)
(68 69)
(70 69)
(70 71)
(72 71)
(74 75)
(76 77)
(78 77)
(80 79)
(82 83)
(86 85)
(86 87)
(88 87)
(88 89)
(92 91)
(92 93)
(98 99)
(100 101)
(102 101)
(104 105)
(106 105)
(1 2)
(3 0)
(2 4)
(5 3)
(4 6)
(7 5)
(6 8)
(9 7)
(8 10)
(11 9)
(10 12)
(13 11)
(12 14)
(15 13)
(14 16)
(17 15)
(16 18)
(19 17)
(18 20)
(21 19)
(20 22)
(23 21)
(22 24)
(25 23)
(24 26)
(27 25)
(26 28)
(29 27)
(28 30)
(31 29)
(30 32)
(33 31)
(32 34)
(35 33)
(34 36)
(37 35)
(36 38)
(39 37)
(38 40)
(41 39)
(40 42)
(43 41)
(42 44)
(45 43)
(44 46)
(47 45)
(46 48)
(49 47)
(48 50)
(51 49)
(50 52)
(53 51)
(52 54)
(55 53)
(54 56)
(57 55)
(56 58)
(59 57)
(58 60)
(61 59)
(60 62)
(63 61)
(62 64)
(65 63)
(64 66)
(67 65)
(66 68)
(69 67)
(68 70)
(71 69)
(70 72)
(73 71)
(72 74)
(75 73)
(74 76)
(77 75)
(76 78)
(79 77)
(78 80)
(81 79)
(80 82)
(83 81)
(82 84)
(85 83)
(84 86)
(87 85)
(86 88)
(89 87)
(88 90)
(91 89)
(90 92)
(93 91)
(92 94)
(94 95)
(95 93)
(96 97)
(97 98)
(99 96)
(98 100)
(101 99)
(100 102)
(103 101)
(102 104)
(105 103)
(104 106)
(107 105)
(106 1)
(0 107)
)

// * * * * * * * * * * * * * * * * * * * * * * * * * * * * * * * * * * * * * //


// ************************************************************************* //
