/*--------------------------------*- C++ -*----------------------------------*\
| =========                 |                                                 |
| \\      /  F ield         | OpenFOAM: The Open Source CFD Toolbox           |
|  \\    /   O peration     | Version:  2312                                  |
|   \\  /    A nd           | Website:  www.openfoam.com                      |
|    \\/     M anipulation  |                                                 |
\*---------------------------------------------------------------------------*/
FoamFile
{
    version     2.0;
    format      ascii;
    arch        "LSB;label=32;scalar=64";
    class       featureEdgeMesh;
    location    "constant/triSurface";
    object      outlet.eMesh;
}
// * * * * * * * * * * * * * * * * * * * * * * * * * * * * * * * * * * * * * //


// points:

108
(
(-363.915 -1553.59 511.881)
(-363.915 -1553.59 1130.29)
(-380.044 -1553.59 1130.29)
(-380.044 -1553.59 512.386)
(-347.786 -1553.59 498.602)
(-347.786 -1553.59 1130.29)
(-331.657 -1553.59 501.562)
(-331.657 -1553.59 1130.29)
(-315.528 -1553.59 503.112)
(-315.528 -1553.59 1130.29)
(-299.399 -1553.59 488.986)
(-299.399 -1553.59 1130.29)
(-283.271 -1553.59 473.621)
(-283.271 -1553.59 1130.29)
(-267.142 -1553.59 466.879)
(-267.142 -1553.59 1130.29)
(-251.013 -1553.59 458.757)
(-251.013 -1553.59 1130.29)
(-234.884 -1553.59 456.323)
(-234.884 -1553.59 1130.29)
(-218.755 -1553.59 453.104)
(-218.755 -1553.59 1130.29)
(-202.626 -1553.59 457.212)
(-202.626 -1553.59 1130.29)
(-186.497 -1553.59 457.394)
(-186.497 -1553.59 1130.29)
(-170.368 -1553.59 458.222)
(-170.368 -1553.59 1130.29)
(-154.239 -1553.59 458.493)
(-154.239 -1553.59 1130.29)
(-138.11 -1553.59 458.691)
(-138.11 -1553.59 1130.29)
(-121.981 -1553.59 458.895)
(-121.981 -1553.59 1130.29)
(-105.853 -1553.59 458.82)
(-105.853 -1553.59 1130.29)
(-89.7236 -1553.59 458.909)
(-89.7236 -1553.59 1130.29)
(-73.5947 -1553.59 459.049)
(-73.5947 -1553.59 1130.29)
(-57.4658 -1553.59 459.219)
(-57.4658 -1553.59 1130.29)
(-41.3369 -1553.59 459.294)
(-41.3369 -1553.59 1130.29)
(-25.208 -1553.59 459.526)
(-25.208 -1553.59 1130.29)
(-9.07913 -1553.59 460.931)
(-9.07913 -1553.59 1130.29)
(7.04978 -1553.59 461.178)
(7.04978 -1553.59 1130.29)
(23.1787 -1553.59 462.2)
(23.1787 -1553.59 1130.29)
(39.3076 -1553.59 462.117)
(39.3076 -1553.59 1130.29)
(55.4365 -1553.59 461.907)
(55.4365 -1553.59 1130.29)
(71.5654 -1553.59 462.059)
(71.5654 -1553.59 1130.29)
(87.6944 -1553.59 466.121)
(87.6944 -1553.59 1130.29)
(103.823 -1553.59 467.873)
(103.823 -1553.59 1130.29)
(119.952 -1553.59 469.429)
(119.952 -1553.59 1130.29)
(136.081 -1553.59 471.64)
(136.081 -1553.59 1130.29)
(152.21 -1553.59 471.786)
(152.21 -1553.59 1130.29)
(168.339 -1553.59 471.804)
(168.339 -1553.59 1130.29)
(184.468 -1553.59 472.665)
(184.468 -1553.59 1130.29)
(200.597 -1553.59 472.288)
(200.597 -1553.59 1130.29)
(216.726 -1553.59 473.323)
(216.726 -1553.59 1130.29)
(232.855 -1553.59 471.117)
(232.855 -1553.59 1130.29)
(248.983 -1553.59 470.091)
(248.983 -1553.59 1130.29)
(265.112 -1553.59 470.222)
(265.112 -1553.59 1130.29)
(281.241 -1553.59 468.74)
(281.241 -1553.59 1130.29)
(297.37 -1553.59 467.082)
(297.37 -1553.59 1130.29)
(313.499 -1553.59 469.825)
(313.499 -1553.59 1130.29)
(329.628 -1553.59 471.343)
(329.628 -1553.59 1130.29)
(345.757 -1553.59 472.901)
(345.757 -1553.59 1130.29)
(361.886 -1553.59 478.508)
(361.886 -1553.59 1130.29)
(378.015 -1553.59 478.757)
(378.015 -1553.59 1130.29)
(394.144 -1553.59 477.631)
(394.144 -1553.59 1130.29)
(410.272 -1553.59 475.047)
(410.272 -1553.59 1130.29)
(426.401 -1553.59 469.202)
(426.401 -1553.59 1130.29)
(442.53 -1553.59 463.58)
(442.53 -1553.59 1130.29)
(458.659 -1553.59 470.691)
(458.659 -1553.59 1130.29)
(474.788 -1553.59 478.993)
(474.788 -1553.59 1130.29)
)


// edges:

213
(
(0 1)
(4 5)
(5 6)
(10 11)
(13 14)
(14 15)
(15 16)
(21 22)
(22 23)
(28 29)
(35 36)
(37 38)
(38 39)
(39 40)
(41 42)
(42 43)
(43 44)
(50 51)
(57 58)
(58 59)
(60 61)
(63 64)
(64 65)
(67 68)
(68 69)
(70 71)
(71 72)
(75 76)
(76 77)
(81 82)
(82 83)
(83 84)
(89 90)
(90 91)
(94 95)
(96 97)
(2 0)
(1 4)
(6 7)
(7 8)
(8 9)
(9 10)
(11 12)
(12 13)
(16 17)
(17 18)
(18 19)
(19 20)
(20 21)
(23 24)
(24 25)
(25 26)
(26 27)
(27 28)
(29 30)
(30 31)
(31 32)
(32 33)
(33 34)
(34 35)
(36 37)
(40 41)
(44 45)
(45 46)
(46 47)
(47 48)
(48 49)
(49 50)
(51 52)
(52 53)
(53 54)
(54 55)
(55 56)
(56 57)
(59 60)
(61 62)
(62 63)
(65 66)
(66 67)
(69 70)
(72 73)
(73 74)
(74 75)
(77 78)
(78 79)
(79 80)
(80 81)
(84 85)
(85 86)
(86 87)
(87 88)
(88 89)
(91 92)
(92 93)
(93 94)
(95 96)
(97 98)
(98 99)
(99 100)
(100 101)
(101 102)
(102 103)
(103 104)
(104 105)
(105 106)
(1 2)
(2 3)
(3 0)
(5 1)
(0 4)
(7 5)
(4 6)
(9 7)
(6 8)
(11 9)
(8 10)
(13 11)
(10 12)
(15 13)
(12 14)
(17 15)
(14 16)
(19 17)
(16 18)
(21 19)
(18 20)
(23 21)
(20 22)
(25 23)
(22 24)
(27 25)
(24 26)
(29 27)
(26 28)
(31 29)
(28 30)
(33 31)
(30 32)
(35 33)
(32 34)
(37 35)
(34 36)
(39 37)
(36 38)
(41 39)
(38 40)
(43 41)
(40 42)
(45 43)
(42 44)
(47 45)
(44 46)
(49 47)
(46 48)
(51 49)
(48 50)
(53 51)
(50 52)
(55 53)
(52 54)
(57 55)
(54 56)
(59 57)
(56 58)
(61 59)
(58 60)
(63 61)
(60 62)
(65 63)
(62 64)
(67 65)
(64 66)
(69 67)
(66 68)
(71 69)
(68 70)
(73 71)
(70 72)
(75 73)
(72 74)
(77 75)
(74 76)
(79 77)
(76 78)
(81 79)
(78 80)
(83 81)
(80 82)
(85 83)
(82 84)
(87 85)
(84 86)
(89 87)
(86 88)
(91 89)
(88 90)
(93 91)
(90 92)
(95 93)
(92 94)
(97 95)
(94 96)
(99 97)
(96 98)
(101 99)
(98 100)
(103 101)
(100 102)
(105 103)
(102 104)
(106 107)
(107 105)
(104 106)
)

// * * * * * * * * * * * * * * * * * * * * * * * * * * * * * * * * * * * * * //


// ************************************************************************* //
