/*--------------------------------*- C++ -*----------------------------------*\
| =========                 |                                                 |
| \\      /  F ield         | OpenFOAM: The Open Source CFD Toolbox           |
|  \\    /   O peration     | Version:  2312                                  |
|   \\  /    A nd           | Website:  www.openfoam.com                      |
|    \\/     M anipulation  |                                                 |
\*---------------------------------------------------------------------------*/
FoamFile
{
    version     2.0;
    format      ascii;
    arch        "LSB;label=32;scalar=64";
    class       featureEdgeMesh;
    location    "constant/triSurface";
    object      wall.eMesh;
}
// * * * * * * * * * * * * * * * * * * * * * * * * * * * * * * * * * * * * * //


// points:

3304
(
(265.112 -1527.74 484.842)
(281.241 -1501.88 504.272)
(-57.4658 -1476.03 459.986)
(-251.013 -1450.18 456.542)
(-41.3369 -1450.18 477.44)
(-9.07908 -1450.18 486.589)
(394.144 -1450.18 485.626)
(442.53 -1450.18 473.783)
(361.886 -1424.33 503.366)
(-251.013 -1372.63 457.866)
(-121.981 -1372.63 449.277)
(313.499 -1372.63 525.58)
(-218.755 -1320.92 456.028)
(378.015 -1320.92 487.119)
(426.401 -1320.92 498.09)
(-121.981 -1295.07 455.744)
(-218.755 -1269.22 456.153)
(394.144 -1269.22 503.091)
(-57.4658 -1243.37 459.144)
(39.3076 -1243.37 508.545)
(345.757 -1243.37 498.907)
(410.273 -1243.37 517.484)
(394.144 -1191.67 523.633)
(-283.271 -1165.81 491.618)
(-202.626 -1139.96 458.032)
(-138.11 -1114.11 452.203)
(281.241 -1114.11 534.603)
(458.659 -1114.11 573.883)
(-138.11 -1062.41 451.275)
(394.144 -1062.41 536.955)
(329.628 -1010.7 545.793)
(39.3076 -984.853 489.401)
(-121.981 -959.001 454.099)
(7.04981 -933.15 460.839)
(168.339 -933.15 563.034)
(329.628 -933.15 554.594)
(378.015 -933.15 563.496)
(-138.11 -907.298 430.812)
(-186.497 -881.447 488.376)
(-121.981 -881.447 448.657)
(458.659 -881.447 605.12)
(103.823 -829.744 525.455)
(168.339 -829.744 549.69)
(-105.853 -803.892 455.634)
(297.37 -803.892 577.906)
(361.886 -803.892 591.231)
(232.854 -778.041 551.822)
(55.4365 -752.189 466.199)
(71.5654 -752.189 477.624)
(248.983 -752.189 549.362)
(-251.013 -726.337 538.87)
(-299.399 -700.486 582.445)
(-186.497 -700.486 508.703)
(-170.368 -648.783 489.413)
(-138.11 -648.783 474.739)
(7.04981 -648.783 458.623)
(-218.755 -622.931 520.286)
(-73.5947 -622.931 440.308)
(184.468 -622.931 535.615)
(-283.271 -571.228 566.314)
(119.952 -571.228 476.69)
(200.597 -545.377 500.231)
(-363.915 -519.525 620.943)
(-283.271 -493.673 589.548)
(-170.368 -493.673 523.875)
(281.241 -493.673 487.299)
(7.04984 -467.822 434.587)
(168.339 -416.119 472.348)
(361.886 -416.119 506.597)
(119.952 -390.267 467.358)
(-331.657 -364.416 650.131)
(-315.528 -338.564 648.068)
(-283.271 -338.564 634.966)
(442.53 -338.564 558.246)
(458.659 -338.564 555.815)
(-89.7236 -312.712 498.213)
(55.4365 -312.712 448.937)
(329.628 -312.712 526.034)
(458.659 -312.712 575.029)
(-170.368 -286.861 558.37)
(200.597 -286.861 468.247)
(-105.853 -261.009 499.996)
(248.983 -261.009 469.19)
(-218.755 -235.158 579.214)
(87.6943 -235.158 456.255)
(361.886 -235.158 538.619)
(-121.981 -209.306 502.487)
(71.5654 -209.306 457.982)
(378.015 -209.306 541.672)
(410.272 -209.306 566.06)
(-234.884 -183.455 552.047)
(184.468 -183.455 460.273)
(-170.368 -157.603 514.439)
(200.597 -157.603 460.924)
(-25.208 -131.751 452.2)
(-234.884 -105.9 517.982)
(-154.239 -105.9 484.412)
(216.726 -105.9 464.382)
(-251.013 -80.0483 520.564)
(-186.497 -80.0484 486.933)
(7.04981 -80.0483 458.183)
(361.886 -80.0483 575.3)
(-251.013 -1527.74 472.309)
(7.04979 -1527.74 475.834)
(426.401 -1527.74 481.79)
(232.855 -1501.88 518.052)
(-283.27 -1476.03 485.442)
(200.597 -1476.03 534.509)
(71.5654 -1450.18 524.731)
(265.112 -1450.18 554.815)
(39.3076 -1424.33 528.565)
(216.726 -1424.33 560.388)
(248.983 -1424.33 562.255)
(313.499 -1424.33 541.065)
(-218.755 -1398.48 457.932)
(-25.208 -1398.48 517.824)
(7.04981 -1398.48 530.488)
(55.4365 -1398.48 542.482)
(394.144 -1398.48 493.774)
(-315.528 -1372.63 492.437)
(-57.4658 -1372.63 511.709)
(442.53 -1372.63 498.995)
(-73.5947 -1346.78 504.406)
(71.5654 -1346.77 557.742)
(184.468 -1346.78 569.89)
(-9.0791 -1320.92 538.325)
(458.659 -1320.92 515.824)
(119.952 -1295.07 568.046)
(329.628 -1295.07 526.525)
(-251.013 -1269.22 478.753)
(87.6944 -1269.22 552.614)
(71.5654 -1243.37 534.423)
(248.983 -1243.37 550.499)
(458.659 -1243.37 540.927)
(-363.915 -1217.52 528.705)
(-234.884 -1217.52 476.112)
(-202.626 -1191.67 461.334)
(-105.853 -1191.67 458.783)
(-89.7236 -1191.67 459.009)
(23.1787 -1191.67 498.684)
(200.597 -1191.67 560.751)
(281.241 -1191.67 555.816)
(-331.657 -1139.96 521.001)
(-251.013 -1139.96 489.785)
(-170.368 -1139.96 472.111)
(361.886 -1139.96 521.604)
(-89.7236 -1114.11 459.031)
(136.081 -1114.11 567.089)
(248.983 -1114.11 567.43)
(-299.399 -1088.26 517.843)
(103.823 -1088.26 564.052)
(184.468 -1088.26 578.394)
(232.855 -1088.26 571.067)
(329.628 -1088.26 537.808)
(-202.626 -1062.41 480.369)
(-9.0791 -1062.41 472.56)
(136.081 -1062.41 572.971)
(168.339 -1062.41 576.692)
(216.726 -1062.41 577.431)
(-186.497 -1036.56 480.745)
(71.5655 -1036.56 546.909)
(119.952 -1036.56 572.076)
(345.757 -1036.56 559.228)
(-347.786 -1010.7 524.708)
(-202.626 -1010.7 486.279)
(265.112 -1010.7 570.198)
(136.081 -984.853 577.261)
(168.339 -984.853 591.734)
(200.597 -984.853 582.602)
(361.886 -984.853 569.875)
(410.272 -984.853 579.034)
(-234.884 -959.001 498.372)
(-202.626 -959.002 483.973)
(232.854 -959.001 579.569)
(-170.368 -933.15 481.251)
(71.5654 -933.15 521.875)
(281.241 -933.15 572.307)
(265.112 -907.298 579.042)
(-154.239 -881.447 477.458)
(87.6944 -881.447 525.574)
(248.983 -881.447 581.901)
(345.757 -881.447 572.505)
(297.37 -855.595 577.67)
(378.015 -855.595 583.862)
(-154.239 -829.744 482.271)
(216.726 -829.744 575.855)
(442.53 -829.744 617.665)
(329.628 -803.892 591.457)
(-315.528 -778.041 609.502)
(200.597 -778.041 557.003)
(394.144 -778.041 616.698)
(-57.4658 -752.189 458.226)
(103.823 -752.189 507.536)
(394.144 -752.189 619.36)
(-89.7236 -726.337 487.727)
(-154.239 -700.486 496.456)
(55.4365 -674.634 479.812)
(361.886 -674.634 626.191)
(103.823 -648.783 496.488)
(232.855 -648.783 577.597)
(378.015 -648.783 604.088)
(-25.208 -622.931 465.723)
(216.726 -622.931 566.88)
(394.144 -622.931 576.392)
(-121.981 -597.08 491.722)
(-41.3369 -597.08 473.268)
(265.112 -597.08 570.374)
(281.241 -571.228 555.315)
(-186.497 -545.377 535.409)
(-154.239 -545.377 516.34)
(-9.07912 -519.525 465.98)
(152.21 -519.525 490.213)
(71.5654 -493.673 475.775)
(119.952 -493.673 471.975)
(232.855 -467.822 483.986)
(394.144 -467.822 521.175)
(-89.7236 -441.97 499.096)
(-331.657 -416.119 644.895)
(-138.11 -416.119 551.212)
(248.983 -416.119 487.414)
(297.37 -416.119 502.064)
(-234.884 -390.267 604.306)
(200.597 -390.267 480.406)
(458.659 -390.267 554.839)
(39.3076 -364.416 458.991)
(248.983 -364.416 485.665)
(378.015 -364.416 543.509)
(394.144 -364.416 546.829)
(200.597 -338.564 477.054)
(394.144 -338.564 563.214)
(297.37 -312.712 509.41)
(378.015 -286.861 565.17)
(-186.497 -261.009 577.682)
(168.339 -261.009 489.493)
(-186.497 -235.158 570.039)
(-57.4658 -235.158 479.674)
(-25.208 -209.306 461.143)
(232.854 -209.306 471.747)
(313.499 -209.306 517.467)
(458.659 -209.306 611.832)
(-105.853 -157.603 490.328)
(-73.5948 -157.603 478.934)
(7.04981 -157.603 467.447)
(-347.786 -131.751 594.713)
(119.952 -131.751 462.268)
(-380.044 -1553.59 512.386)
(-380.044 -1527.74 490.314)
(-363.915 -1527.74 488.429)
(-363.915 -1553.59 511.881)
(-347.786 -1527.74 485.21)
(-347.786 -1553.59 498.602)
(-331.657 -1527.74 486.767)
(-331.657 -1553.59 501.562)
(-315.528 -1527.74 488.053)
(-315.528 -1553.59 503.112)
(-299.399 -1527.74 484.467)
(-299.399 -1553.59 488.986)
(-283.271 -1527.74 473.722)
(-283.271 -1553.59 473.621)
(-267.142 -1527.74 465.841)
(-267.142 -1553.59 466.879)
(-251.013 -1553.59 458.757)
(-234.884 -1527.74 458.331)
(-234.884 -1553.59 456.323)
(-218.755 -1527.74 456.434)
(-218.755 -1553.59 453.104)
(-202.626 -1527.74 457.269)
(-202.626 -1553.59 457.212)
(-186.497 -1527.74 456.607)
(-186.497 -1553.59 457.394)
(-170.368 -1527.74 458.191)
(-170.368 -1553.59 458.222)
(-154.239 -1527.74 458.5)
(-154.239 -1553.59 458.493)
(-138.11 -1527.74 458.718)
(-138.11 -1553.59 458.691)
(-121.981 -1527.74 458.522)
(-121.981 -1553.59 458.895)
(-105.853 -1527.74 458.601)
(-105.853 -1553.59 458.82)
(-89.7236 -1527.74 458.895)
(-89.7236 -1553.59 458.909)
(-73.5947 -1527.74 459.293)
(-73.5947 -1553.59 459.049)
(-57.4659 -1527.74 459.511)
(-57.4658 -1553.59 459.219)
(-41.3369 -1527.74 459.792)
(-41.3369 -1553.59 459.294)
(-25.208 -1527.74 459.808)
(-25.208 -1553.59 459.526)
(-9.07909 -1527.74 462.039)
(-9.07913 -1553.59 460.931)
(7.04978 -1553.59 461.178)
(23.1787 -1527.74 475.809)
(23.1787 -1553.59 462.2)
(39.3076 -1527.74 468.946)
(39.3076 -1553.59 462.117)
(55.4365 -1527.74 470.321)
(55.4365 -1553.59 461.907)
(71.5654 -1527.74 472.024)
(71.5654 -1553.59 462.059)
(87.6943 -1527.74 473.933)
(87.6944 -1553.59 466.121)
(103.823 -1527.74 475.382)
(103.823 -1553.59 467.873)
(119.952 -1527.74 477.464)
(119.952 -1553.59 469.429)
(136.081 -1527.74 480.898)
(136.081 -1553.59 471.64)
(152.21 -1527.74 481.975)
(152.21 -1553.59 471.786)
(168.339 -1527.74 491.809)
(168.339 -1553.59 471.804)
(184.468 -1527.74 485.333)
(184.468 -1553.59 472.665)
(200.597 -1527.74 488.31)
(200.597 -1553.59 472.288)
(216.726 -1527.74 495.116)
(216.726 -1553.59 473.323)
(232.854 -1527.74 493.356)
(232.855 -1553.59 471.117)
(248.983 -1527.74 488.348)
(248.983 -1553.59 470.091)
(265.112 -1553.59 470.222)
(281.241 -1527.74 485.101)
(281.241 -1553.59 468.74)
(297.37 -1527.74 485.547)
(297.37 -1553.59 467.082)
(313.499 -1527.74 488.997)
(313.499 -1553.59 469.825)
(329.628 -1527.74 491.726)
(329.628 -1553.59 471.343)
(345.757 -1527.74 496.214)
(345.757 -1553.59 472.901)
(361.886 -1527.74 497.007)
(361.886 -1553.59 478.508)
(378.015 -1527.74 494.287)
(378.015 -1553.59 478.757)
(394.144 -1527.74 491.117)
(394.144 -1553.59 477.631)
(410.272 -1527.74 486.827)
(410.272 -1553.59 475.047)
(426.401 -1553.59 469.202)
(442.53 -1527.74 472.747)
(442.53 -1553.59 463.58)
(458.659 -1527.74 471.732)
(458.659 -1553.59 470.691)
(474.788 -1527.74 477.998)
(474.788 -1553.59 478.993)
(-380.044 -1501.88 497.724)
(-363.915 -1501.88 495.367)
(-347.786 -1501.88 491.155)
(-331.657 -1501.88 480.174)
(-315.528 -1501.88 477.742)
(-299.399 -1501.88 470.833)
(-283.271 -1501.88 478.799)
(-267.142 -1501.88 469.369)
(-251.013 -1501.88 460.842)
(-234.884 -1501.88 457.685)
(-218.755 -1501.88 455.884)
(-202.626 -1501.88 456.365)
(-186.497 -1501.88 456.927)
(-170.368 -1501.88 456.927)
(-154.239 -1501.88 458.432)
(-138.11 -1501.88 458.259)
(-121.981 -1501.88 458.151)
(-105.853 -1501.88 458.548)
(-89.7236 -1501.88 459.22)
(-73.5947 -1501.88 459.585)
(-57.4658 -1501.88 459.91)
(-41.3369 -1501.88 460.374)
(-25.208 -1501.88 471.098)
(-9.07912 -1501.88 471.024)
(7.04982 -1501.88 470.25)
(23.1787 -1501.88 474.344)
(39.3076 -1501.88 474.574)
(55.4365 -1501.88 478.744)
(71.5654 -1501.88 488.323)
(87.6943 -1501.88 485.734)
(103.823 -1501.88 489.035)
(119.952 -1501.88 499.402)
(136.081 -1501.88 499.889)
(152.21 -1501.88 500.689)
(168.339 -1501.88 504.8)
(184.468 -1501.88 505.609)
(200.597 -1501.88 508.564)
(216.726 -1501.88 514.302)
(248.983 -1501.88 514.424)
(265.112 -1501.88 507.193)
(297.37 -1501.88 507.502)
(313.499 -1501.88 512.962)
(329.628 -1501.88 512.919)
(345.757 -1501.88 511.526)
(361.886 -1501.88 505.151)
(378.015 -1501.88 499.816)
(394.144 -1501.88 494.888)
(410.273 -1501.88 487.084)
(426.401 -1501.88 482.704)
(442.53 -1501.88 474.438)
(458.659 -1501.88 468.924)
(474.788 -1501.88 476.184)
(-380.044 -1476.03 526.271)
(-363.915 -1476.03 516.198)
(-347.786 -1476.03 505.41)
(-331.657 -1476.03 494.105)
(-315.528 -1476.03 483.318)
(-299.399 -1476.03 473.8)
(-267.142 -1476.03 468.835)
(-251.013 -1476.03 460.054)
(-234.884 -1476.03 457.206)
(-218.755 -1476.03 456.442)
(-202.626 -1476.03 457.008)
(-186.497 -1476.03 457.509)
(-170.368 -1476.03 456.997)
(-154.239 -1476.03 457.543)
(-138.11 -1476.03 457.958)
(-121.981 -1476.03 458.056)
(-105.853 -1476.03 458.647)
(-89.7236 -1476.03 459.483)
(-73.5947 -1476.03 459.85)
(-41.3369 -1476.03 470.02)
(-25.208 -1476.03 473.594)
(-9.07911 -1476.03 477.292)
(7.04982 -1476.03 478.273)
(23.1787 -1476.03 485.139)
(39.3076 -1476.03 490.65)
(55.4365 -1476.03 498.381)
(71.5654 -1476.03 501.982)
(87.6944 -1476.03 504.517)
(103.823 -1476.03 508.205)
(119.952 -1476.03 514.715)
(136.081 -1476.03 522.405)
(152.21 -1476.03 521.787)
(168.339 -1476.03 528.902)
(184.468 -1476.03 530.72)
(216.726 -1476.03 535.573)
(232.854 -1476.03 535.498)
(248.983 -1476.03 535.812)
(265.112 -1476.03 535.227)
(281.241 -1476.03 532.286)
(297.37 -1476.03 529.822)
(313.499 -1476.03 524.735)
(329.628 -1476.03 516.068)
(345.757 -1476.03 514.57)
(361.886 -1476.03 506.35)
(378.015 -1476.03 496.883)
(394.144 -1476.03 489.831)
(410.272 -1476.03 484.001)
(426.401 -1476.03 476.688)
(442.53 -1476.03 474.584)
(458.659 -1476.03 474.547)
(474.788 -1476.03 488.025)
(-380.044 -1450.18 540.805)
(-363.915 -1450.18 526.328)
(-347.786 -1450.18 515.653)
(-331.657 -1450.18 503.892)
(-315.528 -1450.18 488.857)
(-299.399 -1450.18 473.939)
(-283.27 -1450.18 468.629)
(-267.142 -1450.18 470.055)
(-234.884 -1450.18 457.078)
(-218.755 -1450.18 456.932)
(-202.626 -1450.18 457.588)
(-186.497 -1450.18 457.769)
(-170.368 -1450.18 457.672)
(-154.239 -1450.18 457.651)
(-138.11 -1450.18 457.959)
(-121.981 -1450.18 457.978)
(-105.853 -1450.18 458.843)
(-89.7236 -1450.18 459.674)
(-73.5947 -1450.18 462.679)
(-57.4658 -1450.18 472.934)
(-25.208 -1450.18 489.952)
(7.04981 -1450.18 495.432)
(23.1787 -1450.18 502.089)
(39.3076 -1450.18 508.563)
(55.4365 -1450.18 514.828)
(87.6943 -1450.18 526.788)
(103.823 -1450.18 532.782)
(119.952 -1450.18 538.214)
(136.081 -1450.18 542.221)
(152.21 -1450.18 540.754)
(168.339 -1450.18 546.67)
(184.468 -1450.18 548.247)
(200.597 -1450.18 549.717)
(216.726 -1450.18 550.824)
(232.854 -1450.18 552.319)
(248.983 -1450.18 553.681)
(281.241 -1450.18 547.978)
(297.37 -1450.18 542.871)
(313.499 -1450.18 532.984)
(329.628 -1450.18 524.621)
(345.757 -1450.18 516.012)
(361.886 -1450.18 504.018)
(378.015 -1450.18 495.255)
(410.272 -1450.18 484.83)
(426.401 -1450.18 483.06)
(458.659 -1450.18 477.49)
(474.788 -1450.18 481.522)
(-380.044 -1424.33 530.483)
(-363.915 -1424.33 519.748)
(-347.786 -1424.33 505.987)
(-331.657 -1424.33 496.565)
(-315.528 -1424.33 481.966)
(-299.399 -1424.33 474.713)
(-283.271 -1424.33 466.663)
(-267.142 -1424.33 457.281)
(-251.013 -1424.33 458.468)
(-234.884 -1424.33 457.403)
(-218.755 -1424.33 457.436)
(-202.626 -1424.33 457.8)
(-186.497 -1424.33 457.983)
(-170.368 -1424.33 457.943)
(-154.239 -1424.33 457.821)
(-138.11 -1424.33 457.712)
(-121.981 -1424.33 457.647)
(-105.853 -1424.33 458.892)
(-89.7237 -1424.33 463.073)
(-73.5947 -1424.33 477.972)
(-57.4658 -1424.33 485.416)
(-41.3369 -1424.33 497.862)
(-25.208 -1424.33 504.226)
(-9.0791 -1424.33 507.003)
(7.04982 -1424.33 512.625)
(23.1787 -1424.33 519.867)
(55.4365 -1424.33 532.8)
(71.5654 -1424.33 536.429)
(87.6943 -1424.33 539.947)
(103.823 -1424.33 543.165)
(119.952 -1424.33 547.266)
(136.081 -1424.33 549.333)
(152.21 -1424.33 552.254)
(168.339 -1424.33 553.528)
(184.468 -1424.33 554.124)
(200.597 -1424.33 558.632)
(232.854 -1424.33 559.305)
(265.112 -1424.33 556.944)
(281.241 -1424.33 555.127)
(297.37 -1424.33 549.218)
(329.628 -1424.33 525.444)
(345.757 -1424.33 519.296)
(378.015 -1424.33 500.812)
(394.144 -1424.33 492.143)
(410.272 -1424.33 483.331)
(426.401 -1424.33 483.474)
(442.53 -1424.33 483.608)
(458.659 -1424.33 483.493)
(474.788 -1424.33 483.752)
(-380.044 -1398.48 522.393)
(-363.915 -1398.48 506.087)
(-347.786 -1398.48 492.802)
(-331.657 -1398.48 489.003)
(-315.528 -1398.48 477.374)
(-299.399 -1398.48 473.933)
(-283.271 -1398.48 467.922)
(-267.142 -1398.48 463.989)
(-251.013 -1398.48 458.274)
(-234.884 -1398.48 457.61)
(-202.626 -1398.48 457.856)
(-186.497 -1398.48 457.96)
(-170.368 -1398.48 457.931)
(-154.239 -1398.48 457.756)
(-138.11 -1398.48 458.663)
(-121.981 -1398.48 457.555)
(-105.853 -1398.48 459.932)
(-89.7236 -1398.48 478.888)
(-73.5947 -1398.48 488.669)
(-57.4658 -1398.48 499.665)
(-41.3369 -1398.48 508.714)
(-9.07913 -1398.48 523.724)
(23.1787 -1398.48 534.232)
(39.3076 -1398.48 536.919)
(71.5654 -1398.48 544.575)
(87.6943 -1398.48 546.153)
(103.823 -1398.48 550.019)
(119.952 -1398.48 550.234)
(136.081 -1398.48 553.033)
(152.21 -1398.48 556.79)
(168.339 -1398.48 561.073)
(184.468 -1398.48 562.998)
(200.597 -1398.48 563.485)
(216.726 -1398.48 563.438)
(232.854 -1398.48 563.547)
(248.983 -1398.48 563.493)
(265.112 -1398.48 559.896)
(281.241 -1398.48 555.806)
(297.37 -1398.48 547.109)
(313.499 -1398.48 536.788)
(329.628 -1398.48 522.223)
(345.757 -1398.48 518.116)
(361.886 -1398.48 509.658)
(378.015 -1398.48 501.633)
(410.272 -1398.48 482.338)
(426.401 -1398.48 479.679)
(442.53 -1398.48 487.802)
(458.659 -1398.48 489.353)
(474.788 -1398.48 491.242)
(-380.044 -1372.63 512.578)
(-363.915 -1372.63 502.037)
(-347.786 -1372.63 500.641)
(-331.657 -1372.63 497.411)
(-299.399 -1372.63 477.787)
(-283.27 -1372.63 474.053)
(-267.142 -1372.63 464.487)
(-234.884 -1372.63 458.139)
(-218.755 -1372.63 457.622)
(-202.626 -1372.63 457.822)
(-186.497 -1372.63 457.944)
(-170.368 -1372.63 457.902)
(-154.239 -1372.63 457.803)
(-138.11 -1372.63 457.383)
(-105.853 -1372.63 477.44)
(-89.7236 -1372.63 485.723)
(-73.5947 -1372.63 500.09)
(-41.3369 -1372.63 520.141)
(-25.208 -1372.63 525.135)
(-9.07909 -1372.63 532.208)
(7.04979 -1372.63 534.13)
(23.1787 -1372.63 538.765)
(39.3076 -1372.63 542.843)
(55.4365 -1372.63 545.911)
(71.5654 -1372.63 549.91)
(87.6943 -1372.63 553.317)
(103.823 -1372.63 556.515)
(119.952 -1372.63 558.188)
(136.081 -1372.63 561.114)
(152.21 -1372.63 565.905)
(168.339 -1372.63 569.454)
(184.468 -1372.63 568.495)
(200.597 -1372.63 566.435)
(216.726 -1372.63 563.381)
(232.854 -1372.63 563.635)
(248.983 -1372.63 556.832)
(265.112 -1372.63 552.651)
(281.241 -1372.63 544.069)
(297.37 -1372.63 536.494)
(329.628 -1372.63 522.788)
(345.757 -1372.63 514.901)
(361.886 -1372.63 509.322)
(378.015 -1372.63 500.29)
(394.144 -1372.63 490.088)
(410.272 -1372.63 480.712)
(426.401 -1372.63 490.76)
(458.659 -1372.63 497.242)
(474.788 -1372.63 497.161)
(-380.044 -1346.78 525.823)
(-363.915 -1346.78 519.092)
(-347.786 -1346.77 510.963)
(-331.657 -1346.78 500.953)
(-315.528 -1346.77 489.847)
(-299.399 -1346.78 481.102)
(-283.271 -1346.78 478.764)
(-267.142 -1346.77 471.623)
(-251.013 -1346.78 461.503)
(-234.884 -1346.78 458.379)
(-218.755 -1346.77 457.132)
(-202.626 -1346.78 457.774)
(-186.497 -1346.78 457.941)
(-170.368 -1346.77 457.906)
(-154.239 -1346.77 457.838)
(-138.11 -1346.78 457.734)
(-121.981 -1346.77 455.141)
(-105.853 -1346.77 470.563)
(-89.7236 -1346.78 483.954)
(-57.4658 -1346.78 516.256)
(-41.3369 -1346.77 527.126)
(-25.208 -1346.78 533.688)
(-9.07912 -1346.78 538.922)
(7.04982 -1346.77 543.099)
(23.1787 -1346.77 544.579)
(39.3076 -1346.78 551.13)
(55.4365 -1346.78 553.333)
(87.6944 -1346.78 560.77)
(103.823 -1346.77 565.64)
(119.952 -1346.78 570.063)
(136.081 -1346.78 571.807)
(152.21 -1346.78 570.705)
(168.339 -1346.77 570.026)
(200.597 -1346.78 564.645)
(216.726 -1346.77 562.355)
(232.855 -1346.78 557.103)
(248.983 -1346.77 547.203)
(265.112 -1346.78 537.474)
(281.241 -1346.78 529.846)
(297.37 -1346.78 527.167)
(313.499 -1346.78 519.083)
(329.628 -1346.78 512.407)
(345.757 -1346.78 505.483)
(361.886 -1346.77 498.815)
(378.015 -1346.78 494.013)
(394.144 -1346.77 488.675)
(410.273 -1346.77 492.458)
(426.401 -1346.77 496.164)
(442.53 -1346.78 502.208)
(458.659 -1346.78 506.245)
(474.788 -1346.77 509.689)
(-380.044 -1320.92 523.309)
(-363.915 -1320.92 507.427)
(-347.786 -1320.92 498.405)
(-331.657 -1320.92 484.447)
(-315.528 -1320.92 480.344)
(-299.399 -1320.92 479.95)
(-283.271 -1320.92 474.564)
(-267.142 -1320.92 474.424)
(-251.013 -1320.92 467.664)
(-234.884 -1320.92 458.535)
(-202.626 -1320.92 457.776)
(-186.497 -1320.92 457.897)
(-170.368 -1320.92 457.91)
(-154.239 -1320.92 457.904)
(-138.11 -1320.92 456.887)
(-121.981 -1320.92 458.253)
(-105.853 -1320.92 458.211)
(-89.7236 -1320.92 475.43)
(-73.5947 -1320.92 490.793)
(-57.4658 -1320.92 508.728)
(-41.3369 -1320.92 518.731)
(-25.208 -1320.92 530.655)
(7.04982 -1320.92 542.981)
(23.1787 -1320.92 549.619)
(39.3076 -1320.92 552.082)
(55.4365 -1320.92 558.858)
(71.5655 -1320.92 564.788)
(87.6944 -1320.92 568.018)
(103.823 -1320.92 571.322)
(119.952 -1320.92 574.513)
(136.081 -1320.92 574.782)
(152.21 -1320.92 573.433)
(168.339 -1320.92 572.58)
(184.468 -1320.92 564.585)
(200.597 -1320.92 561.194)
(216.726 -1320.92 556.029)
(232.854 -1320.92 544.908)
(248.983 -1320.92 533.538)
(265.112 -1320.92 531.203)
(281.241 -1320.92 522.91)
(297.37 -1320.92 515.894)
(313.499 -1320.92 511.48)
(329.628 -1320.92 506.378)
(345.757 -1320.92 502.503)
(361.886 -1320.92 498.528)
(394.144 -1320.92 498.029)
(410.272 -1320.92 498.316)
(442.53 -1320.92 505.191)
(474.788 -1320.92 517.742)
(-380.044 -1295.07 518.883)
(-363.915 -1295.07 505.701)
(-347.786 -1295.07 490.565)
(-331.657 -1295.07 482.938)
(-315.528 -1295.07 481.896)
(-299.399 -1295.07 482.19)
(-283.271 -1295.07 480.892)
(-267.142 -1295.07 474.183)
(-251.013 -1295.07 466.964)
(-234.884 -1295.07 458.122)
(-218.755 -1295.07 457.702)
(-202.626 -1295.07 457.801)
(-186.497 -1295.07 457.855)
(-170.368 -1295.07 457.856)
(-154.239 -1295.07 457.92)
(-138.11 -1295.07 457.934)
(-105.853 -1295.07 459.897)
(-89.7236 -1295.07 465.289)
(-73.5947 -1295.07 483.765)
(-57.4658 -1295.07 496.053)
(-41.3369 -1295.07 505.102)
(-25.208 -1295.07 514.949)
(-9.0791 -1295.07 523.572)
(7.04982 -1295.07 529.9)
(23.1787 -1295.07 544.817)
(39.3076 -1295.07 552.321)
(55.4365 -1295.07 555.093)
(71.5654 -1295.07 560.351)
(87.6944 -1295.07 563.277)
(103.823 -1295.07 564.66)
(136.081 -1295.07 565.055)
(152.21 -1295.07 563.14)
(168.339 -1295.07 560.265)
(184.468 -1295.07 553.429)
(200.597 -1295.07 548.072)
(216.726 -1295.07 540.888)
(232.854 -1295.07 536.191)
(248.983 -1295.07 529.61)
(265.112 -1295.07 535.103)
(281.241 -1295.07 527.059)
(297.37 -1295.07 523.485)
(313.499 -1295.07 522.26)
(345.757 -1295.07 505.014)
(361.886 -1295.07 494.681)
(378.015 -1295.07 492.753)
(394.143 -1295.07 498.326)
(410.272 -1295.07 505.099)
(426.401 -1295.07 509.6)
(442.53 -1295.07 510.561)
(458.659 -1295.07 515.881)
(474.788 -1295.07 523.564)
(-380.044 -1269.22 505.988)
(-363.915 -1269.22 496.826)
(-347.786 -1269.22 492.634)
(-331.657 -1269.22 491.57)
(-315.528 -1269.22 499.348)
(-299.399 -1269.22 497.983)
(-283.271 -1269.22 485.507)
(-267.142 -1269.22 474.013)
(-234.884 -1269.22 458.845)
(-202.626 -1269.22 457.778)
(-186.497 -1269.22 457.799)
(-170.368 -1269.22 457.804)
(-154.239 -1269.22 457.898)
(-138.11 -1269.22 458.06)
(-121.981 -1269.22 458.038)
(-105.853 -1269.22 457.842)
(-89.7236 -1269.22 457.285)
(-73.5947 -1269.22 467.473)
(-57.4658 -1269.22 475.593)
(-41.3369 -1269.22 490.744)
(-25.208 -1269.22 490.391)
(-9.0791 -1269.22 500.845)
(7.04982 -1269.22 515.485)
(23.1787 -1269.22 535.135)
(39.3076 -1269.22 536.649)
(55.4365 -1269.22 537.33)
(71.5654 -1269.22 546.667)
(103.823 -1269.22 551.471)
(119.952 -1269.22 553.698)
(136.081 -1269.22 552.523)
(152.21 -1269.22 546.56)
(168.339 -1269.22 545.332)
(184.468 -1269.22 553.258)
(200.597 -1269.22 549.7)
(216.726 -1269.22 539.069)
(232.854 -1269.22 535.777)
(248.983 -1269.22 537.022)
(265.112 -1269.22 535.728)
(281.241 -1269.22 535.093)
(297.37 -1269.22 533.235)
(313.499 -1269.22 527.88)
(329.628 -1269.22 521.308)
(345.757 -1269.22 502.538)
(361.886 -1269.22 495.868)
(378.015 -1269.22 498.374)
(410.273 -1269.22 510.146)
(426.401 -1269.22 517.727)
(442.53 -1269.22 523.648)
(458.659 -1269.22 526.051)
(474.788 -1269.22 527.404)
(-380.044 -1243.37 521.256)
(-363.915 -1243.37 514.795)
(-347.786 -1243.37 510.901)
(-331.657 -1243.37 510.365)
(-315.528 -1243.37 507.672)
(-299.399 -1243.37 505.91)
(-283.271 -1243.37 488.117)
(-267.142 -1243.37 483.914)
(-251.013 -1243.37 475.982)
(-234.884 -1243.37 460.664)
(-218.755 -1243.37 458.028)
(-202.626 -1243.37 457.901)
(-186.497 -1243.37 457.735)
(-170.368 -1243.37 457.743)
(-154.239 -1243.37 457.888)
(-138.11 -1243.37 458.078)
(-121.981 -1243.37 458.225)
(-105.853 -1243.37 458.239)
(-89.7236 -1243.37 458.127)
(-73.5947 -1243.37 457.595)
(-41.3369 -1243.37 474.08)
(-25.208 -1243.37 484.9)
(-9.07912 -1243.37 497.761)
(7.04979 -1243.37 505.462)
(23.1787 -1243.37 509.042)
(55.4365 -1243.37 524.889)
(87.6944 -1243.37 533.947)
(103.823 -1243.37 536.004)
(119.952 -1243.37 539.11)
(136.081 -1243.37 543.735)
(152.21 -1243.37 543.145)
(168.339 -1243.37 542.551)
(184.468 -1243.37 547.842)
(200.597 -1243.37 549.761)
(216.726 -1243.37 545.405)
(232.855 -1243.37 547.162)
(265.112 -1243.37 546.545)
(281.241 -1243.37 545)
(297.37 -1243.37 545.743)
(313.499 -1243.37 535.14)
(329.628 -1243.37 521.864)
(361.886 -1243.37 498.213)
(378.015 -1243.37 505.418)
(394.144 -1243.37 510.574)
(426.401 -1243.37 525.692)
(442.53 -1243.37 535.034)
(474.788 -1243.37 542.916)
(-380.044 -1217.52 529.581)
(-347.786 -1217.52 516.339)
(-331.657 -1217.52 513.75)
(-315.528 -1217.52 506.767)
(-299.399 -1217.52 504.938)
(-283.271 -1217.52 495.649)
(-267.142 -1217.52 487.589)
(-251.013 -1217.52 474.363)
(-218.755 -1217.52 457.716)
(-202.626 -1217.52 456.905)
(-186.497 -1217.52 457.689)
(-170.368 -1217.52 457.652)
(-154.239 -1217.52 457.565)
(-138.11 -1217.52 458.073)
(-121.981 -1217.52 458.234)
(-105.853 -1217.52 458.61)
(-89.7236 -1217.52 458.477)
(-73.5947 -1217.52 458.318)
(-57.4658 -1217.52 457.85)
(-41.3369 -1217.52 471.889)
(-25.208 -1217.52 477.056)
(-9.07909 -1217.52 479.601)
(7.0498 -1217.52 486.769)
(23.1787 -1217.52 494.922)
(39.3076 -1217.52 502.71)
(55.4365 -1217.52 517.569)
(71.5654 -1217.52 519.132)
(87.6943 -1217.52 519.737)
(103.823 -1217.52 524.852)
(119.952 -1217.52 531.442)
(136.081 -1217.52 543.426)
(152.21 -1217.52 543.975)
(168.339 -1217.52 548.294)
(184.468 -1217.52 549.77)
(200.597 -1217.52 552.042)
(216.726 -1217.52 556.513)
(232.854 -1217.52 553.702)
(248.983 -1217.52 556.994)
(265.112 -1217.52 553.547)
(281.241 -1217.52 551.017)
(297.37 -1217.52 550.942)
(313.499 -1217.52 530.318)
(329.628 -1217.52 513.732)
(345.757 -1217.52 507.802)
(361.886 -1217.52 504.64)
(378.015 -1217.52 510.728)
(394.144 -1217.52 520.515)
(410.272 -1217.52 528.107)
(426.401 -1217.52 535.764)
(442.53 -1217.52 542.504)
(458.659 -1217.52 551.853)
(474.788 -1217.52 557.038)
(-380.044 -1191.67 534.43)
(-363.915 -1191.67 525.722)
(-347.786 -1191.67 520.913)
(-331.657 -1191.67 516.56)
(-315.528 -1191.67 511.078)
(-299.399 -1191.67 511.987)
(-283.271 -1191.67 502.711)
(-267.142 -1191.67 489.436)
(-251.013 -1191.67 479.329)
(-234.884 -1191.67 473.053)
(-218.755 -1191.67 458.059)
(-186.497 -1191.67 457.868)
(-170.368 -1191.67 457.858)
(-154.239 -1191.67 458.58)
(-138.11 -1191.67 457.996)
(-121.981 -1191.67 458.283)
(-73.5947 -1191.67 458.75)
(-57.4658 -1191.67 458.275)
(-41.3369 -1191.67 459.443)
(-25.208 -1191.67 478.309)
(-9.07912 -1191.67 477.726)
(7.04984 -1191.67 490.366)
(39.3076 -1191.67 502.248)
(55.4365 -1191.67 506.55)
(71.5654 -1191.67 511.503)
(87.6943 -1191.67 516.226)
(103.823 -1191.67 525.8)
(119.952 -1191.67 535.207)
(136.081 -1191.67 546.694)
(152.21 -1191.67 552.17)
(168.339 -1191.67 553.492)
(184.468 -1191.67 558.326)
(216.726 -1191.67 560.173)
(232.855 -1191.67 562.498)
(248.983 -1191.67 559.466)
(265.112 -1191.67 557.297)
(297.37 -1191.67 539.418)
(313.499 -1191.67 524.22)
(329.628 -1191.67 510.477)
(345.757 -1191.67 505.18)
(361.886 -1191.67 510.833)
(378.015 -1191.67 517.644)
(410.272 -1191.67 535.484)
(426.401 -1191.67 543.482)
(442.53 -1191.67 553.378)
(458.659 -1191.67 562.083)
(474.788 -1191.67 567.923)
(-380.044 -1165.81 536.504)
(-363.915 -1165.81 528.331)
(-347.786 -1165.81 521.95)
(-331.657 -1165.81 517.643)
(-315.528 -1165.81 511.391)
(-299.399 -1165.81 502.045)
(-267.142 -1165.81 489.222)
(-251.013 -1165.81 477.766)
(-234.884 -1165.81 474.729)
(-218.755 -1165.81 461.73)
(-202.626 -1165.81 458.181)
(-186.497 -1165.81 457.453)
(-170.368 -1165.81 458.551)
(-154.239 -1165.81 459.943)
(-138.11 -1165.81 457.904)
(-121.981 -1165.81 458.219)
(-105.853 -1165.81 458.694)
(-89.7236 -1165.81 459.08)
(-73.5947 -1165.81 458.988)
(-57.4658 -1165.81 458.576)
(-41.3369 -1165.81 458.327)
(-25.208 -1165.81 466.731)
(-9.0791 -1165.81 476.838)
(7.04982 -1165.81 483.449)
(23.1787 -1165.81 490.584)
(39.3076 -1165.81 497.829)
(55.4366 -1165.81 508.096)
(71.5654 -1165.81 519.078)
(87.6943 -1165.81 529.382)
(103.823 -1165.81 536.072)
(119.952 -1165.81 548.703)
(136.081 -1165.81 555.342)
(152.21 -1165.81 556.264)
(168.339 -1165.81 562.32)
(184.468 -1165.81 563.409)
(200.597 -1165.81 564.351)
(216.726 -1165.81 565.656)
(232.855 -1165.81 565.936)
(248.983 -1165.81 561.776)
(265.112 -1165.81 553.72)
(281.241 -1165.81 548.845)
(297.37 -1165.81 532.773)
(313.499 -1165.81 518.359)
(329.628 -1165.81 512.863)
(345.757 -1165.81 508.583)
(361.886 -1165.81 515.464)
(378.015 -1165.81 525.661)
(394.144 -1165.81 531.229)
(410.272 -1165.81 539.772)
(426.401 -1165.81 548.668)
(442.53 -1165.81 559.011)
(458.659 -1165.81 569.064)
(474.788 -1165.81 575.324)
(-380.044 -1139.96 534.916)
(-363.915 -1139.96 529.838)
(-347.786 -1139.96 524.776)
(-315.528 -1139.96 512.532)
(-299.399 -1139.96 508.324)
(-283.271 -1139.96 502.132)
(-267.142 -1139.96 494.496)
(-234.884 -1139.96 474.481)
(-218.755 -1139.96 464.786)
(-186.497 -1139.96 457.633)
(-154.239 -1139.96 460.125)
(-138.11 -1139.96 458.056)
(-121.981 -1139.96 458.208)
(-105.853 -1139.96 458.586)
(-89.7236 -1139.96 458.752)
(-73.5947 -1139.96 458.575)
(-57.4658 -1139.96 458.576)
(-41.3369 -1139.96 458.504)
(-25.208 -1139.96 464.763)
(-9.07912 -1139.96 479.499)
(7.04981 -1139.96 495.384)
(23.1787 -1139.96 504.56)
(39.3076 -1139.96 512.776)
(55.4365 -1139.96 522.259)
(71.5654 -1139.96 531.892)
(87.6943 -1139.96 543.661)