/*--------------------------------*- C++ -*----------------------------------*\
| =========                 |                                                 |
| \\      /  F ield         | OpenFOAM: The Open Source CFD Toolbox           |
|  \\    /   O peration     | Version:  v2312                                 |
|   \\  /    A nd           | Website:  www.openfoam.com                      |
|    \\/     M anipulation  |                                                 |
\*---------------------------------------------------------------------------*/
FoamFile
{
    version     2.0;
    format      ascii;
    class       volScalarField;
    object      nuTilda;
}
// * * * * * * * * * * * * * * * * * * * * * * * * * * * * * * * * * * * * * //

dimensions      [0 2 -1 0 0 0 0];

internalField   uniform 4e-05;

boundaryField
{
    YZ-Xmin
    {
        type            freestream;
        freestreamValue $internalField;
    }

    YZ-Xmax
    {
        type            freestream;
        freestreamValue $internalField;
    }

    XZ-Ymin
    {
        type            fixedValue;
        value           uniform 0;
    }

    XZ-Ymax
    {
        type            fixedValue;
        value           uniform 0;
    }

    XY-Zmin
    {
        type            fixedValue;
        value           uniform 0;
    }

    XY-Zmax
    {
        type            fixedValue;
        value           uniform 0;
    }

    aggregate
    {
        type            fixedValue;
        value           uniform 0;
    }

    frontAndBack
    {
        type            empty;
    }
}


// ************************************************************************* //
