/*--------------------------------*- C++ -*----------------------------------*\
| =========                 |                                                 |
| \\      /  F ield         | OpenFOAM: The Open Source CFD Toolbox           |
|  \\    /   O peration     | Version:  2312                                  |
|   \\  /    A nd           | Website:  www.openfoam.com                      |
|    \\/     M anipulation  |                                                 |
\*---------------------------------------------------------------------------*/
FoamFile
{
    version     2.0;
    format      ascii;
    arch        "LSB;label=32;scalar=64";
    class       polyBoundaryMesh;
    location    "0.001/polyMesh";
    object      boundary;
}
// * * * * * * * * * * * * * * * * * * * * * * * * * * * * * * * * * * * * * //

4
(
    inlet
    {
        type            patch;
        nFaces          2457;
        startFace       760798;
    }
    outlet
    {
        type            patch;
        nFaces          2883;
        startFace       763255;
    }
    lowerWall
    {
        type            wall;
        inGroups        1(wall);
        nFaces          86376;
        startFace       766138;
    }
    atmosphere
    {
        type            patch;
        nFaces          3400;
        startFace       852514;
    }
)

// ************************************************************************* //
