FoamFile
{
    version     2.0;
    format      ascii;
    class       polyBoundaryMesh;
    location    "constant/polyMesh";
    object      boundary;
}

7
(
aggregate
{
    type patch;
    nFaces 24;
    startFace 12;
}
XY-Zmin
{
    type patch;
    nFaces 4;
    startFace 36;
}
YZ-Xmin
{
    type patch;
    nFaces 4;
    startFace 40;
}
XZ-Ymin
{
    type patch;
    nFaces 4;
    startFace 44;
}
XY-Zmax
{
    type patch;
    nFaces 4;
    startFace 48;
}
XZ-Ymax
{
    type patch;
    nFaces 4;
    startFace 52;
}
YZ-Xmax
{
    type patch;
    nFaces 4;
    startFace 56;
}
)
