FoamFile
{
    version     2.0;
    format      ascii;
    class       polyBoundaryMesh;
    location    "constant/polyMesh";
    object      boundary;
}

7
(
XY-Zmin
{
    type wall;
    nFaces 125;
    startFace 1592;
}
YZ-Xmin
{
    type patch;
    nFaces 25;
    startFace 1717;
}
XZ-Ymin
{
    type wall;
    nFaces 125;
    startFace 1742;
}
XY-Zmax
{
    type wall;
    nFaces 125;
    startFace 1867;
}
XZ-Ymax
{
    type wall;
    nFaces 125;
    startFace 1992;
}
aggregate
{
    type wall;
    nFaces 208;
    startFace 2117;
}
YZ-Xmax
{
    type patch;
    nFaces 25;
    startFace 2325;
}
)
