FoamFile
{
    version     2.0;
    format      ascii;
    class       polyBoundaryMesh;
    location    "constant/polyMesh";
    object      boundary;
}

7
(
XY-Zmin
{
    type patch;
    nFaces 75;
    startFace 516;
}
YZ-Xmin
{
    type patch;
    nFaces 9;
    startFace 591;
}
XZ-Ymin
{
    type patch;
    nFaces 75;
    startFace 600;
}
XY-Zmax
{
    type patch;
    nFaces 75;
    startFace 675;
}
XZ-Ymax
{
    type patch;
    nFaces 75;
    startFace 750;
}
aggregate
{
    type patch;
    nFaces 120;
    startFace 825;
}
YZ-Xmax
{
    type patch;
    nFaces 9;
    startFace 945;
}
)
