/*--------------------------------*- C++ -*----------------------------------*\
| =========                 |                                                 |
| \\      /  F ield         | OpenFOAM: The Open Source CFD Toolbox           |
|  \\    /   O peration     | Version:  2312                                  |
|   \\  /    A nd           | Website:  www.openfoam.com                      |
|    \\/     M anipulation  |                                                 |
\*---------------------------------------------------------------------------*/
FoamFile
{
    version     2.0;
    format      ascii;
    arch        "LSB;label=32;scalar=64";
    class       polyBoundaryMesh;
    location    "constant/polyMesh";
    object      boundary;
}
// * * * * * * * * * * * * * * * * * * * * * * * * * * * * * * * * * * * * * //

6
(
    YZ-Xmin
    {
        type            patch;
        physicalType    wall;
        nFaces          100;
        startFace       2700;
    }
    YZ-Xmax
    {
        type            patch;
        physicalType    wall;
        nFaces          100;
        startFace       2800;
    }
    XZ-Ymin
    {
        type            patch;
        physicalType    wall;
        nFaces          100;
        startFace       2900;
    }
    XZ-Ymax
    {
        type            patch;
        physicalType    wall;
        nFaces          100;
        startFace       3000;
    }
    XY-Zmin
    {
        type            patch;
        physicalType    wall;
        nFaces          100;
        startFace       3100;
    }
    XY-Zmax
    {
        type            patch;
        physicalType    wall;
        nFaces          100;
        startFace       3200;
    }
)

// ************************************************************************* //
