FoamFile
{
    version     2.0;
    format      ascii;
    class       polyBoundaryMesh;
    location    "constant/polyMesh";
    object      boundary;
}

1
(
aggregate
{
    type patch;
    nFaces 7;
    startFace 0;
}
)
