/*--------------------------------*- C++ -*----------------------------------*\
| =========                 |                                                 |
| \\      /  F ield         | OpenFOAM: The Open Source CFD Toolbox           |
|  \\    /   O peration     | Version:  2312                                  |
|   \\  /    A nd           | Website:  www.openfoam.com                      |
|    \\/     M anipulation  |                                                 |
\*---------------------------------------------------------------------------*/
FoamFile
{
    version     2.0;
    format      ascii;
    arch        "LSB;label=32;scalar=64";
    class       extendedFeatureEdgeMesh;
    location    "constant/extendedFeatureEdgeMesh";
    object      atmosphere.extendedFeatureEdgeMesh;
}
// * * * * * * * * * * * * * * * * * * * * * * * * * * * * * * * * * * * * * //

// points

222
(
(-380.044 -1553.59 1130.29)
(-363.915 -1553.59 1130.29)
(-347.786 -1553.59 1130.29)
(-331.657 -1553.59 1130.29)
(-380.044 -1476.03 1130.29)
(-380.044 -1501.88 1130.29)
(-380.044 -1527.74 1130.29)
(-315.528 -1553.59 1130.29)
(-299.399 -1553.59 1130.29)
(-283.271 -1553.59 1130.29)
(-380.044 -1424.33 1130.29)
(-380.044 -1450.18 1130.29)
(-267.142 -1553.59 1130.29)
(-251.013 -1553.59 1130.29)
(-380.044 -1372.63 1130.29)
(-380.044 -1398.48 1130.29)
(-380.044 -1320.92 1130.29)
(-380.044 -1346.78 1130.29)
(-380.044 -1269.22 1130.29)
(-380.044 -1295.07 1130.29)
(-380.044 -1191.67 1130.29)
(-380.044 -1217.52 1130.29)
(-380.044 -1243.37 1130.29)
(-380.044 -1165.81 1130.29)
(-234.884 -1553.59 1130.29)
(-218.755 -1553.59 1130.29)
(-202.626 -1553.59 1130.29)
(-186.497 -1553.59 1130.29)
(-380.044 -1139.96 1130.29)
(-380.044 -1062.41 1130.29)
(-380.044 -1088.26 1130.29)
(-380.044 -1114.11 1130.29)
(-380.044 -1010.7 1130.29)
(-380.044 -1036.56 1130.29)
(-380.044 -933.15 1130.29)
(-380.044 -959.002 1130.29)
(-380.044 -984.853 1130.29)
(-170.368 -1553.59 1130.29)
(-154.239 -1553.59 1130.29)
(-138.11 -1553.59 1130.29)
(-380.044 -881.447 1130.29)
(-380.044 -907.298 1130.29)
(-121.981 -1553.59 1130.29)
(-380.044 -829.744 1130.29)
(-380.044 -855.595 1130.29)
(-105.853 -1553.59 1130.29)
(-380.044 -778.041 1130.29)
(-380.044 -803.892 1130.29)
(-89.7236 -1553.59 1130.29)
(-73.5947 -1553.59 1130.29)
(-57.4658 -1553.59 1130.29)
(-380.044 -726.337 1130.29)
(-380.044 -752.189 1130.29)
(-41.3369 -1553.59 1130.29)
(-25.208 -1553.59 1130.29)
(-380.044 -674.634 1130.29)
(-380.044 -700.486 1130.29)
(-380.044 -622.931 1130.29)
(-380.044 -648.783 1130.29)
(-9.07913 -1553.59 1130.29)
(-380.044 -597.08 1130.29)
(-380.044 -545.377 1130.29)
(-380.044 -571.228 1130.29)
(-380.044 -493.673 1130.29)
(-380.044 -519.525 1130.29)
(-380.044 -416.119 1130.29)
(-380.044 -441.97 1130.29)
(-380.044 -467.822 1130.29)
(-380.044 -390.267 1130.29)
(7.04978 -1553.59 1130.29)
(23.1787 -1553.59 1130.29)
(39.3076 -1553.59 1130.29)
(55.4365 -1553.59 1130.29)
(71.5654 -1553.59 1130.29)
(87.6944 -1553.59 1130.29)
(103.823 -1553.59 1130.29)
(-380.044 -338.564 1130.29)
(-380.044 -364.415 1130.29)
(-380.044 -286.861 1130.29)
(-380.044 -261.009 1130.29)
(119.952 -1553.59 1130.29)
(136.081 -1553.59 1130.29)
(152.21 -1553.59 1130.29)
(-380.044 -235.158 1130.29)
(-380.044 -157.603 1130.29)
(-380.044 -183.455 1130.29)
(-380.044 -209.306 1130.29)
(168.339 -1553.59 1130.29)
(184.468 -1553.59 1130.29)
(-380.044 -105.9 1130.29)
(-380.044 -131.751 1130.29)
(200.597 -1553.59 1130.29)
(216.726 -1553.59 1130.29)
(232.855 -1553.59 1130.29)
(248.983 -1553.59 1130.29)
(265.112 -1553.59 1130.29)
(-380.044 -80.0483 1130.29)
(-363.915 -54.1968 1130.29)
(-380.044 -54.1968 1130.29)
(-347.786 -54.1968 1130.29)
(281.241 -1553.59 1130.29)
(297.37 -1553.59 1130.29)
(-331.657 -54.1968 1130.29)
(-315.528 -54.1968 1130.29)
(313.499 -1553.59 1130.29)
(-299.399 -54.1968 1130.29)
(-283.27 -54.1968 1130.29)
(329.628 -1553.59 1130.29)
(345.757 -1553.59 1130.29)
(361.886 -1553.59 1130.29)
(378.015 -1553.59 1130.29)
(394.144 -1553.59 1130.29)
(410.272 -1553.59 1130.29)
(-267.142 -54.1968 1130.29)
(-251.013 -54.1968 1130.29)
(426.401 -1553.59 1130.29)
(-234.884 -54.1968 1130.29)
(-218.755 -54.1968 1130.29)
(442.53 -1553.59 1130.29)
(458.659 -1553.59 1130.29)
(474.788 -1553.59 1130.29)
(474.788 -1527.74 1130.29)
(-202.626 -54.1968 1130.29)
(-186.497 -54.1968 1130.29)
(474.788 -1501.88 1130.29)
(-170.368 -54.1968 1130.29)
(-154.239 -54.1968 1130.29)
(474.788 -1476.03 1130.29)
(474.788 -1450.18 1130.29)
(474.788 -1424.33 1130.29)
(474.788 -1398.48 1130.29)
(474.788 -1372.63 1130.29)
(474.788 -1346.77 1130.29)
(-138.11 -54.1968 1130.29)
(-121.981 -54.1968 1130.29)
(474.788 -1320.92 1130.29)
(474.788 -1295.07 1130.29)
(474.788 -1269.22 1130.29)
(-105.853 -54.1968 1130.29)
(-89.7236 -54.1968 1130.29)
(474.788 -1243.37 1130.29)
(474.788 -1217.52 1130.29)
(474.788 -1191.67 1130.29)
(474.788 -1165.81 1130.29)
(474.788 -1139.96 1130.29)
(-73.5948 -54.1968 1130.29)
(474.788 -1114.11 1130.29)
(474.788 -1088.26 1130.29)
(474.788 -1062.41 1130.29)
(474.788 -1036.56 1130.29)
(474.788 -1010.7 1130.29)
(-57.4658 -54.1968 1130.29)
(-41.3369 -54.1968 1130.29)
(474.788 -984.853 1130.29)
(474.788 -959.001 1130.29)
(-25.208 -54.1968 1130.29)
(474.788 -933.15 1130.29)
(474.788 -907.298 1130.29)
(-9.07912 -54.1968 1130.29)
(474.788 -881.447 1130.29)
(474.788 -855.595 1130.29)
(474.788 -829.744 1130.29)
(474.788 -803.892 1130.29)
(7.04981 -54.1968 1130.29)
(474.788 -778.041 1130.29)
(474.788 -752.189 1130.29)
(474.788 -726.338 1130.29)
(474.788 -700.486 1130.29)
(474.788 -674.634 1130.29)
(474.788 -648.783 1130.29)
(474.788 -622.931 1130.29)
(474.788 -597.08 1130.29)
(474.788 -571.228 1130.29)
(474.788 -545.377 1130.29)
(474.788 -519.525 1130.29)
(474.788 -493.673 1130.29)
(474.788 -467.822 1130.29)
(23.1787 -54.1968 1130.29)
(39.3076 -54.1968 1130.29)
(55.4365 -54.1968 1130.29)
(71.5654 -54.1968 1130.29)
(474.788 -441.97 1130.29)
(474.788 -416.119 1130.29)
(87.6944 -54.1968 1130.29)
(474.788 -390.267 1130.29)
(474.788 -364.415 1130.29)
(103.823 -54.1968 1130.29)
(474.788 -338.564 1130.29)
(474.788 -312.712 1130.29)
(474.788 -286.861 1130.29)
(474.788 -261.009 1130.29)
(119.952 -54.1968 1130.29)
(474.788 -235.158 1130.29)
(474.788 -209.306 1130.29)
(474.788 -183.455 1130.29)
(474.788 -157.603 1130.29)
(474.788 -131.751 1130.29)
(136.081 -54.1968 1130.29)
(152.21 -54.1968 1130.29)
(474.788 -105.9 1130.29)
(168.339 -54.1968 1130.29)
(184.468 -54.1968 1130.29)
(474.788 -80.0483 1130.29)
(474.788 -54.1968 1130.29)
(458.659 -54.1968 1130.29)
(442.53 -54.1967 1130.29)
(426.401 -54.1968 1130.29)
(410.272 -54.1968 1130.29)
(394.144 -54.1967 1130.29)
(378.015 -54.1968 1130.29)
(200.597 -54.1968 1130.29)
(361.886 -54.1968 1130.29)
(216.726 -54.1968 1130.29)
(265.112 -54.1968 1130.29)
(248.983 -54.1967 1130.29)
(232.854 -54.1968 1130.29)
(345.757 -54.1968 1130.29)
(329.628 -54.1968 1130.29)
(281.241 -54.1968 1130.29)
(313.499 -54.1968 1130.29)
(297.37 -54.1968 1130.29)
(-380.044 -312.712 1130.29)
)

// edges

441
(
(2 0)
(3 0)
(6 4)
(3 6)
(9 7)
(7 6)
(4 10)
(7 4)
(12 7)
(13 7)
(7 10)
(10 14)
(14 16)
(16 18)
(22 20)
(14 18)
(22 23)
(14 22)
(7 14)
(24 7)
(27 25)
(25 7)
(7 22)
(22 28)
(31 29)
(22 31)
(25 22)
(27 22)
(22 29)
(29 32)
(36 34)
(29 36)
(27 29)
(39 37)
(37 29)
(37 36)
(39 36)
(34 40)
(39 34)
(42 34)
(40 43)
(42 40)
(45 40)
(43 46)
(45 43)
(50 48)
(48 43)
(46 51)
(48 46)
(54 50)
(50 46)
(51 55)
(50 51)
(54 51)
(55 57)
(54 55)
(59 55)
(55 60)
(60 61)
(61 63)
(67 65)
(60 63)
(67 68)
(55 63)
(59 63)
(71 69)
(69 63)
(69 67)
(72 69)
(75 73)
(73 69)
(69 68)
(68 76)
(76 78)
(76 79)
(69 76)
(75 69)
(82 80)
(80 69)
(69 79)
(69 83)
(80 83)
(86 84)
(80 86)
(88 82)
(82 86)
(84 89)
(82 84)
(91 82)
(94 92)
(91 84)
(95 92)
(92 84)
(84 96)
(96 97)
(96 99)
(92 96)
(101 95)
(95 96)
(96 102)
(96 103)
(101 96)
(104 96)
(96 105)
(96 106)
(107 96)
(109 107)
(111 109)
(112 109)
(109 96)
(96 113)
(96 114)
(112 96)
(115 96)
(96 116)
(96 117)
(118 96)
(121 119)
(119 96)
(96 122)
(96 123)
(121 96)
(124 96)
(96 125)
(96 126)
(127 96)
(129 127)
(131 129)
(132 129)
(129 96)
(96 133)
(96 134)
(132 96)
(137 135)
(135 96)
(96 138)
(96 139)
(137 96)
(141 137)
(144 142)
(142 137)
(137 139)
(137 145)
(144 137)
(147 144)
(150 148)
(148 144)
(144 145)
(144 151)
(148 151)
(148 152)
(154 150)
(150 152)
(150 155)
(157 154)
(154 155)
(154 158)
(159 154)
(161 159)
(162 159)
(159 158)
(159 163)
(164 159)
(166 164)
(168 166)
(170 168)
(172 170)
(175 173)
(172 168)
(176 173)
(172 166)
(166 159)
(159 177)
(159 178)
(172 159)
(172 178)
(172 179)
(173 179)
(173 180)
(182 176)
(176 180)
(176 183)
(185 182)
(182 183)
(182 186)
(187 182)
(189 187)
(190 187)
(187 186)
(187 191)
(192 187)
(194 192)
(196 194)
(194 187)
(187 197)
(187 198)
(196 187)
(199 187)
(187 200)
(187 201)
(202 187)
(204 202)
(206 204)
(209 207)
(206 202)
(207 202)
(202 201)
(202 210)
(209 202)
(211 202)
(202 212)
(215 213)
(202 215)
(216 202)
(217 202)
(202 213)
(202 218)
(219 202)
(202 220)
(0 1)
(1 2)
(2 3)
(4 5)
(5 6)
(6 0)
(7 8)
(8 9)
(3 7)
(10 11)
(11 4)
(9 12)
(12 13)
(14 15)
(15 10)
(16 17)
(17 14)
(18 19)
(19 16)
(20 21)
(21 22)
(23 20)
(22 18)
(13 24)
(25 26)
(26 27)
(24 25)
(28 23)
(29 30)
(30 31)
(31 28)
(32 33)
(33 29)
(34 35)
(35 36)
(36 32)
(37 38)
(38 39)
(27 37)
(40 41)
(41 34)
(39 42)
(43 44)
(44 40)
(42 45)
(46 47)
(47 43)
(48 49)
(49 50)
(45 48)
(51 52)
(52 46)
(50 53)
(53 54)
(55 56)
(56 51)
(57 58)
(58 55)
(54 59)
(60 57)
(61 62)
(62 60)
(63 64)
(64 61)
(65 66)
(66 67)
(68 65)
(69 70)
(70 71)
(59 69)
(67 63)
(71 72)
(73 74)
(74 75)
(72 73)
(76 77)
(77 68)
(78 221)
(221 76)
(79 78)
(80 81)
(81 82)
(75 80)
(83 79)
(84 85)
(85 86)
(86 83)
(82 87)
(87 88)
(89 90)
(90 84)
(88 91)
(92 93)
(93 94)
(94 95)
(91 92)
(96 89)
(97 98)
(98 96)
(99 97)
(95 100)
(100 101)
(102 99)
(103 102)
(101 104)
(105 103)
(106 105)
(104 107)
(107 108)
(108 109)
(109 110)
(110 111)
(111 112)
(113 106)
(114 113)
(112 115)
(116 114)
(117 116)
(115 118)
(119 120)
(120 121)
(118 119)
(122 117)
(123 122)
(121 124)
(125 123)
(126 125)
(124 127)
(127 128)
(128 129)
(129 130)
(130 131)
(131 132)
(133 126)
(134 133)
(135 136)
(136 137)
(132 135)
(138 134)
(139 138)
(137 140)
(140 141)
(142 143)
(143 144)
(141 142)
(145 139)
(144 146)
(146 147)
(148 149)
(149 150)
(147 148)
(151 145)
(152 151)
(150 153)
(153 154)
(155 152)
(154 156)
(156 157)
(158 155)
(157 159)
(159 160)
(160 161)
(161 162)
(163 158)
(162 164)
(164 165)
(165 166)
(166 167)
(167 168)
(168 169)
(169 170)
(170 171)
(171 172)
(173 174)
(174 175)
(175 176)
(177 163)
(178 177)
(179 178)
(172 173)
(180 179)
(176 181)
(181 182)
(183 180)
(182 184)
(184 185)
(186 183)
(185 187)
(187 188)
(188 189)
(189 190)
(191 186)
(190 192)
(192 193)
(193 194)
(194 195)
(195 196)
(197 191)
(198 197)
(196 199)
(200 198)
(201 200)
(199 202)
(202 203)
(203 204)
(204 205)
(205 206)
(207 208)
(208 209)
(206 207)
(210 201)
(209 211)
(212 210)
(213 214)
(214 215)
(215 212)
(211 216)
(216 217)
(218 213)
(217 219)
(220 218)
(219 220)
)

// concaveStart mixedStart nonFeatureStart
0 0 221
// internalStart flatStart openStart multipleStart
0 0 219 441
// normals
220{(0 0 1)}
// normal volume types

220
(
0
0
0
0
0
0
0
0
0
0
0
0
0
0
0
0
0
0
0
0
0
0
0
0
0
0
0
0
0
0
0
0
0
0
0
0
0
0
0
0
0
0
0
0
0
0
0
0
0
0
0
0
0
0
0
0
0
0
0
0
0
0
0
0
0
0
0
0
0
0
0
0
0
0
0
0
0
0
0
0
0
0
0
0
0
0
0
0
0
0
0
0
0
0
0
0
0
0
0
0
0
0
0
0
0
0
0
0
0
0
0
0
0
0
0
0
0
0
0
0
0
0
0
0
0
0
0
0
0
0
0
0
0
0
0
0
0
0
0
0
0
0
0
0
0
0
0
0
0
0
0
0
0
0
0
0
0
0
0
0
0
0
0
0
0
0
0
0
0
0
0
0
0
0
0
0
0
0
0
0
0
0
0
0
0
0
0
0
0
0
0
0
0
0
0
0
0
0
0
0
0
0
0
0
0
0
0
0
0
0
0
0
0
0
0
0
0
0
0
0
)

// normalDirections

441
(
2(1 -1)
2(1 -1)
2(1 -1)
2(1 -1)
2(1 -1)
2(1 -1)
2(1 -1)
2(1 -1)
2(1 -1)
2(1 -1)
2(1 -1)
2(1 -1)
2(1 -1)
2(1 -1)
2(1 -1)
2(1 -1)
2(1 -1)
2(1 -1)
2(1 -1)
2(1 -1)
2(1 -1)
2(1 -1)
2(1 -1)
2(1 -1)
2(1 -1)
2(1 -1)
2(1 -1)
2(1 -1)
2(1 -1)
2(1 -1)
2(1 -1)
2(1 -1)
2(1 -1)
2(1 -1)
2(1 -1)
2(1 -1)
2(1 -1)
2(1 -1)
2(1 -1)
2(1 -1)
2(1 -1)
2(1 -1)
2(1 -1)
2(1 -1)
2(1 -1)
2(1 -1)
2(1 -1)
2(1 -1)
2(1 -1)
2(1 -1)
2(1 -1)
2(1 -1)
2(1 -1)
2(1 -1)
2(1 -1)
2(1 -1)
2(1 -1)
2(1 -1)
2(1 -1)
2(1 -1)
2(1 -1)
2(1 -1)
2(1 -1)
2(1 -1)
2(1 -1)
2(1 -1)
2(1 -1)
2(1 -1)
2(1 -1)
2(1 -1)
2(1 -1)
2(1 -1)
2(1 -1)
2(1 -1)
2(1 -1)
2(1 -1)
2(1 -1)
2(1 -1)
2(1 -1)
2(1 -1)
2(1 -1)
2(1 -1)
2(1 -1)
2(1 -1)
2(1 -1)
2(1 -1)
2(1 -1)
2(1 -1)
2(1 -1)
2(1 -1)
2(1 -1)
2(1 -1)
2(1 -1)
2(1 -1)
2(1 -1)
2(1 -1)
2(1 -1)
2(1 -1)
2(1 -1)
2(1 -1)
2(1 -1)
2(1 -1)
2(1 -1)
2(1 -1)
2(1 -1)
2(1 -1)
2(1 -1)
2(1 -1)
2(1 -1)
2(1 -1)
2(1 -1)
2(1 -1)
2(1 -1)
2(1 -1)
2(1 -1)
2(1 -1)
2(1 -1)
2(1 -1)
2(1 -1)
2(1 -1)
2(1 -1)
2(1 -1)
2(1 -1)
2(1 -1)
2(1 -1)
2(1 -1)
2(1 -1)
2(1 -1)
2(1 -1)
2(1 -1)
2(1 -1)
2(1 -1)
2(1 -1)
2(1 -1)
2(1 -1)
2(1 -1)
2(1 -1)
2(1 -1)
2(1 -1)
2(1 -1)
2(1 -1)
2(1 -1)
2(1 -1)
2(1 -1)
2(1 -1)
2(1 -1)
2(1 -1)
2(1 -1)
2(1 -1)
2(1 -1)
2(1 -1)
2(1 -1)
2(1 -1)
2(1 -1)
2(1 -1)
2(1 -1)
2(1 -1)
2(1 -1)
2(1 -1)
2(1 -1)
2(1 -1)
2(1 -1)
2(1 -1)
2(1 -1)
2(1 -1)
2(1 -1)
2(1 -1)
2(1 -1)
2(1 -1)
2(1 -1)
2(1 -1)
2(1 -1)
2(1 -1)
2(1 -1)
2(1 -1)
2(1 -1)
2(1 -1)
2(1 -1)
2(1 -1)
2(1 -1)
2(1 -1)
2(1 -1)
2(1 -1)
2(1 -1)
2(1 -1)
2(1 -1)
2(1 -1)
2(1 -1)
2(1 -1)
2(1 -1)
2(1 -1)
2(1 -1)
2(1 -1)
2(1 -1)
2(1 -1)
2(1 -1)
2(1 -1)
2(1 -1)
2(1 -1)
2(1 -1)
2(1 -1)
2(1 -1)
2(1 -1)
2(1 -1)
2(1 -1)
2(1 -1)
2(1 -1)
2(1 -1)
2(1 -1)
2(1 -1)
2(1 -1)
2(1 -1)
2(1 -1)
2(1 -1)
2(1 -1)
2(1 -1)
2(1 -1)
2(1 -1)
2(1 -1)
1(1)
1(1)
1(1)
1(1)
1(1)
1(1)
1(1)
1(1)
1(1)
1(1)
1(1)
1(1)
1(1)
1(1)
1(1)
1(1)
1(1)
1(1)
1(1)
1(1)
1(1)
1(1)
1(1)
1(1)
1(1)
1(1)
1(1)
1(1)
1(1)
1(1)
1(1)
1(1)
1(1)
1(1)
1(1)
1(1)
1(1)
1(1)
1(1)
1(1)
1(1)
1(1)
1(1)
1(1)
1(1)
1(1)
1(1)
1(1)
1(1)
1(1)
1(1)
1(1)
1(1)
1(1)
1(1)
1(1)
1(1)
1(1)
1(1)
1(1)
1(1)
1(1)
1(1)
1(1)
1(1)
1(1)
1(1)
1(1)
1(1)
1(1)
1(1)
1(1)
1(1)
1(1)
1(1)
1(1)
1(1)
1(1)
1(1)
1(1)
1(1)
1(1)
1(1)
1(1)
1(1)
1(1)
1(1)
1(1)
1(1)
1(1)
1(1)
1(1)
1(1)
1(1)
1(1)
1(1)
1(1)
1(1)
1(1)
1(1)
1(1)
1(1)
1(1)
1(1)
1(1)
1(1)
1(1)
1(1)
1(1)
1(1)
1(1)
1(1)
1(1)
1(1)
1(1)
1(1)
1(1)
1(1)
1(1)
1(1)
1(1)
1(1)
1(1)
1(1)
1(1)
1(1)
1(1)
1(1)
1(1)
1(1)
1(1)
1(1)
1(1)
1(1)
1(1)
1(1)
1(1)
1(1)
1(1)
1(1)
1(1)
1(1)
1(1)
1(1)
1(1)
1(1)
1(1)
1(1)
1(1)
1(1)
1(1)
1(1)
1(1)
1(1)
1(1)
1(1)
1(1)
1(1)
1(1)
1(1)
1(1)
1(1)
1(1)
1(1)
1(1)
1(1)
1(1)
1(1)
1(1)
1(1)
1(1)
1(1)
1(1)
1(1)
1(1)
1(1)
1(1)
1(1)
1(1)
1(1)
1(1)
1(1)
1(1)
1(1)
1(1)
1(1)
1(1)
1(1)
1(1)
1(1)
1(1)
1(1)
1(1)
1(1)
1(1)
1(1)
1(1)
1(1)
1(1)
1(1)
1(1)
1(1)
1(1)
1(1)
1(1)
1(1)
1(1)
1(1)
1(1)
1(1)
1(1)
1(1)
1(1)
1(1)
1(1)
1(1)
1(1)
1(1)
1(1)
1(1)
1(1)
1(1)
)

// edgeNormals

441
(
2(0 1)
2(1 3)
2(2 160)
2(3 5)
2(4 7)
2(5 160)
2(6 161)
2(160 161)
2(7 8)
2(8 15)
2(161 162)
2(9 162)
2(10 163)
2(11 163)
2(12 13)
2(163 14)
2(13 18)
2(14 164)
2(162 164)
2(15 17)
2(16 165)
2(17 166)
2(164 166)
2(18 20)
2(19 167)
2(20 167)
2(166 165)
2(165 168)
2(167 168)
2(21 23)
2(22 169)
2(23 170)
2(168 25)
2(24 171)
2(25 170)
2(170 171)
2(171 169)
2(26 172)
2(169 27)
2(27 172)
2(28 173)
2(172 29)
2(29 173)
2(30 174)
2(173 32)
2(31 175)
2(32 174)
2(33 176)
2(174 175)
2(34 177)
2(175 176)
2(35 178)
2(176 177)
2(177 178)
2(36 38)
2(178 37)
2(37 179)
2(38 180)
2(39 181)
2(40 181)
2(41 42)
2(181 180)
2(42 182)
2(180 179)
2(179 44)
2(43 46)
2(44 45)
2(45 182)
2(46 48)
2(47 183)
2(48 183)
2(182 184)
2(49 184)
2(50 51)
2(51 185)
2(184 185)
2(183 53)
2(52 186)
2(53 187)
2(185 54)
2(54 187)
2(187 56)
2(55 188)
2(56 186)
2(57 59)
2(186 188)
2(58 63)
2(188 189)
2(59 189)
2(60 61)
2(189 62)
2(61 190)
2(62 191)
2(63 191)
2(64 65)
2(65 67)
2(191 190)
2(66 192)
2(190 192)
2(67 68)
2(68 70)
2(192 69)
2(69 72)
2(70 71)
2(71 76)
2(72 193)
2(73 193)
2(74 75)
2(75 194)
2(193 194)
2(76 77)
2(77 79)
2(194 78)
2(78 81)
2(79 80)
2(80 84)
2(81 83)
2(82 195)
2(83 195)
2(84 85)
2(85 87)
2(195 86)
2(86 89)
2(87 88)
2(88 93)
2(89 196)
2(90 196)
2(91 92)
2(92 197)
2(196 197)
2(93 94)
2(94 97)
2(197 96)
2(95 198)
2(96 198)
2(97 98)
2(98 199)
2(198 199)
2(99 101)
2(100 200)
2(101 200)
2(199 102)
2(102 201)
2(200 201)
2(103 105)
2(104 202)
2(105 203)
2(201 106)
2(106 203)
2(203 107)
2(107 202)
2(108 204)
2(202 109)
2(109 204)
2(110 112)
2(204 111)
2(111 205)
2(112 205)
2(113 114)
2(114 116)
2(205 115)
2(115 123)
2(116 206)
2(117 206)
2(118 207)
2(119 208)
2(120 208)
2(121 122)
2(208 207)
2(122 209)
2(207 210)
2(206 210)
2(123 124)
2(124 211)
2(210 211)
2(211 125)
2(125 126)
2(126 127)
2(127 209)
2(128 212)
2(209 129)
2(129 212)
2(130 132)
2(212 131)
2(131 213)
2(132 213)
2(133 134)
2(134 136)
2(213 135)
2(135 139)
2(136 214)
2(137 214)
2(138 215)
2(214 215)
2(139 140)
2(140 142)
2(215 141)
2(141 144)
2(142 143)
2(143 216)
2(144 216)
2(145 217)
2(146 217)
2(147 218)
2(217 148)
2(148 218)
2(216 149)
2(149 151)
2(218 150)
2(150 154)
2(151 153)
2(152 219)
2(153 219)
2(154 155)
2(155 157)
2(219 156)
2(156 158)
2(157 159)
2(158 159)
1(0)
1(0)
1(1)
1(2)
1(2)
1(3)
1(4)
1(4)
1(5)
1(6)
1(6)
1(7)
1(8)
1(9)
1(9)
1(10)
1(10)
1(11)
1(11)
1(12)
1(12)
1(13)
1(14)
1(15)
1(16)
1(16)
1(17)
1(18)
1(19)
1(19)
1(20)
1(21)
1(21)
1(22)
1(22)
1(23)
1(24)
1(24)
1(25)
1(26)
1(26)
1(27)
1(28)
1(28)
1(29)
1(30)
1(30)
1(31)
1(31)
1(32)
1(33)
1(33)
1(34)
1(34)
1(35)
1(35)
1(36)
1(36)
1(37)
1(38)
1(39)
1(39)
1(40)
1(40)
1(41)
1(41)
1(42)
1(43)
1(43)
1(44)
1(45)
1(46)
1(47)
1(47)
1(48)
1(49)
1(49)
1(50)
1(50)
1(51)
1(52)
1(52)
1(53)
1(54)
1(55)
1(55)
1(56)
1(57)
1(57)
1(58)
1(58)
1(59)
1(60)
1(60)
1(61)
1(62)
1(63)
1(64)
1(64)
1(65)
1(66)
1(66)
1(67)
1(68)
1(69)
1(70)
1(71)
1(72)
1(73)
1(73)
1(74)
1(74)
1(75)
1(76)
1(77)
1(78)
1(79)
1(80)
1(81)
1(82)
1(82)
1(83)
1(84)
1(85)
1(86)
1(87)
1(88)
1(89)
1(90)
1(90)
1(91)
1(91)
1(92)
1(93)
1(94)
1(95)
1(95)
1(96)
1(97)
1(98)
1(99)
1(99)
1(100)
1(100)
1(101)
1(102)
1(103)
1(103)
1(104)
1(104)
1(105)
1(106)
1(107)
1(108)
1(108)
1(109)
1(110)
1(110)
1(111)
1(112)
1(113)
1(113)
1(114)
1(115)
1(116)
1(117)
1(117)
1(118)
1(118)
1(119)
1(119)
1(120)
1(120)
1(121)
1(121)
1(122)
1(123)
1(124)
1(125)
1(126)
1(127)
1(128)
1(128)
1(129)
1(130)
1(130)
1(131)
1(132)
1(133)
1(133)
1(134)
1(135)
1(136)
1(137)
1(137)
1(138)
1(138)
1(139)
1(140)
1(141)
1(142)
1(143)
1(144)
1(145)
1(145)
1(146)
1(146)
1(147)
1(147)
1(148)
1(149)
1(150)
1(151)
1(152)
1(152)
1(153)
1(154)
1(155)
1(156)
1(157)
1(158)
1(159)
)

// featurePointNormals

221
(
1(0)
1(0)
1(0)
1(1)
1(2)
1(2)
1(2)
1(4)
1(4)
1(4)
1(6)
1(6)
1(7)
1(8)
1(9)
1(9)
1(10)
1(10)
1(11)
1(11)
1(12)
1(12)
1(12)
1(13)
1(15)
1(16)
1(16)
1(16)
1(18)
1(19)
1(19)
1(19)
1(21)
1(21)
1(22)
1(22)
1(22)
1(24)
1(24)
1(24)
1(26)
1(26)
1(27)
1(28)
1(28)
1(29)
1(30)
1(30)
1(31)
1(31)
1(31)
1(33)
1(33)
1(34)
1(34)
1(35)
1(35)
1(36)
1(36)
1(37)
1(38)
1(39)
1(39)
1(40)
1(40)
1(41)
1(41)
1(41)
1(42)
1(43)
1(43)
1(43)
1(46)
1(47)
1(47)
1(47)
1(49)
1(49)
1(50)
1(51)
1(52)
1(52)
1(52)
1(54)
1(55)
1(55)
1(55)
1(57)
1(57)
1(58)
1(58)
1(59)
1(60)
1(60)
1(60)
1(61)
1(63)
1(64)
1(64)
1(65)
1(66)
1(66)
1(67)
1(68)
1(69)
1(70)
1(71)
1(72)
1(73)
1(73)
1(74)
1(74)
1(75)
1(76)
1(77)
1(78)
1(79)
1(80)
1(81)
1(82)
1(82)
1(82)
1(84)
1(85)
1(86)
1(87)
1(88)
1(89)
1(90)
1(90)
1(91)
1(91)
1(92)
1(93)
1(94)
1(95)
1(95)
1(95)
1(97)
1(98)
1(99)
1(99)
1(100)
1(100)
1(100)
1(102)
1(103)
1(103)
1(104)
1(104)
1(104)
1(106)
1(107)
1(108)
1(108)
1(109)
1(110)
1(110)
1(111)
1(112)
1(113)
1(113)
1(114)
1(115)
1(116)
1(117)
1(117)
1(118)
1(118)
1(119)
1(119)
1(120)
1(120)
1(121)
1(121)
1(121)
1(122)
1(123)
1(124)
1(125)
1(127)
1(128)
1(128)
1(129)
1(130)
1(130)
1(131)
1(132)
1(133)
1(133)
1(134)
1(135)
1(136)
1(137)
1(137)
1(138)
1(138)
1(139)
1(140)
1(141)
1(142)
1(143)
1(144)
1(145)
1(145)
1(146)
1(146)
1(147)
1(147)
1(147)
1(149)
1(150)
1(151)
1(152)
1(152)
1(152)
1(154)
1(155)
1(156)
1(157)
1(158)
)

// featurePointEdges

221
(
4(0 1 219 224)
2(219 220)
3(0 220 221)
4(1 3 221 227)
5(2 6 7 222 229)
2(222 223)
5(2 3 5 223 224)

12
(
4
5
7
8
9
10
18
19
21
22
225
227
)

2(225 226)
3(4 226 230)
5(6 10 11 228 233)
2(228 229)
3(8 230 231)
3(9 231 242)
7(11 12 15 17 18 232 235)
2(232 233)
4(12 13 234 237)
2(234 235)
4(13 15 236 241)
2(236 237)
3(14 238 240)
2(238 239)

11
(
14
16
17
22
23
25
26
27
28
239
241
)

3(16 240 246)
3(19 242 245)
5(20 21 26 243 245)
2(243 244)
5(20 27 32 244 257)
3(23 246 249)
8(24 28 29 31 32 34 247 251)
2(247 248)
4(24 25 248 249)
3(29 250 254)
2(250 251)
6(30 37 38 39 252 259)
2(252 253)
6(30 31 35 36 253 254)
5(33 34 35 255 257)
2(255 256)
5(33 36 38 256 260)
6(37 40 41 42 258 262)
2(258 259)
4(39 41 260 263)
6(40 43 44 46 261 265)
2(261 262)
4(42 44 263 268)
6(43 47 48 50 264 270)
2(264 265)
5(45 46 48 266 268)
2(266 267)
6(45 49 50 52 267 271)
6(47 51 52 53 269 274)
2(269 270)
2(271 272)
5(49 53 55 272 277)
8(51 54 55 56 57 63 273 276)
2(273 274)
3(54 275 278)
2(275 276)
4(56 64 277 288)
5(57 58 61 278 280)
4(58 59 279 282)
2(279 280)
7(59 61 63 64 66 281 289)
2(281 282)
3(60 283 285)
2(283 284)
5(60 62 67 284 289)
5(62 71 72 285 295)

13
(
65
66
67
68
70
71
75
76
78
79
80
286
288
)

2(286 287)
3(65 287 290)
3(68 290 293)
4(69 70 291 293)
2(291 292)
4(69 76 292 301)
6(72 73 74 75 294 297)
2(294 295)
3(73 296 298)
4(74 79 298 302)
6(77 78 81 83 299 301)
2(299 300)
7(77 84 85 87 88 300 306)
4(80 81 302 305)
8(82 86 87 90 92 93 303 309)
2(303 304)
5(82 83 85 304 305)
2(306 307)
3(84 307 310)
3(86 308 315)
2(308 309)
4(88 90 310 314)
6(89 91 92 96 311 314)
2(311 312)
3(89 312 313)
5(91 97 98 313 319)

38
(
93
94
95
96
98
99
100
101
102
103
104
105
109
110
111
112
113
114
115
116
118
119
120
121
122
123
124
125
129
130
131
132
134
135
136
137
315
317
)

3(94 316 318)
2(316 317)
3(95 318 321)
2(319 320)
4(97 101 320 323)
3(99 321 322)
3(100 322 324)
3(102 323 326)
3(103 324 325)
3(104 325 332)
4(105 106 326 327)
2(327 328)
6(106 107 108 109 328 329)
2(329 330)
3(107 330 331)
4(108 112 331 334)
3(110 332 333)
3(111 333 335)
3(113 334 337)
3(114 335 336)
3(115 336 341)
3(116 337 340)
4(117 118 338 340)
2(338 339)
4(117 121 339 343)
3(119 341 342)
3(120 342 344)
3(122 343 346)
3(123 344 345)
3(124 345 352)
4(125 126 346 347)
2(347 348)
6(126 127 128 129 348 349)
2(349 350)
3(127 350 351)
4(128 132 351 356)
3(130 352 353)
3(131 353 357)
4(133 134 354 356)
2(354 355)
9(133 137 138 140 141 142 143 355 359)
3(135 357 358)
4(136 141 358 364)
2(359 360)
3(138 360 363)
4(139 140 361 363)
2(361 362)
8(139 143 144 146 147 148 362 365)
4(142 147 364 370)
2(365 366)
3(144 366 369)
6(145 146 149 150 367 369)
2(367 368)
6(145 151 152 153 368 372)
4(148 149 370 371)
4(150 152 371 374)
2(372 373)
7(151 154 155 156 157 373 375)
4(153 155 374 377)
2(375 376)
3(154 376 378)
4(156 160 377 382)

12
(
157
158
159
160
161
162
171
172
173
174
378
379
)

2(379 380)
3(158 380 381)
3(159 381 383)
3(161 382 395)
4(162 163 383 384)
2(384 385)
6(163 164 170 171 385 386)
2(386 387)
5(164 165 168 387 388)
2(388 389)
4(165 166 389 390)
2(390 391)
8(166 168 170 174 175 176 391 398)
6(167 169 177 178 392 398)
2(392 393)
3(167 393 394)
6(169 179 180 181 394 400)
3(172 395 396)
4(173 175 396 397)
4(176 177 397 399)
4(178 180 399 402)
2(400 401)
7(179 182 183 184 185 401 403)
4(181 183 402 405)
2(403 404)
3(182 404 406)
4(184 188 405 410)

16
(
185
186
187
188
189
190
193
194
195
196
197
198
199
200
406
407
)

2(407 408)
3(186 408 409)
3(187 409 411)
3(189 410 416)
4(190 191 411 412)
2(412 413)
5(191 192 193 413 414)
2(414 415)
4(192 196 415 418)
3(194 416 417)
3(195 417 419)
3(197 418 421)
3(198 419 420)
4(199 206 420 429)

18
(
200
201
204
205
206
207
208
209
210
212
213
214
215
216
217
218
421
422
)

2(422 423)
4(201 202 423 424)
2(424 425)
4(202 204 425 428)
4(203 205 426 428)
2(426 427)
4(203 208 427 430)
3(207 429 431)
3(209 430 435)
3(210 431 434)
4(211 215 432 437)
2(432 433)
4(211 212 433 434)
3(213 435 436)
3(214 436 438)
3(216 437 439)
3(217 438 440)
3(218 439 440)
)

// regionEdges

222
(
219
220
221
222
223
224
225
226
227
228
229
230
231
232
233
234
235
236
237
238
239
240
241
242
243
244
245
246
247
248
249
250
251
252
253
254
255
256
257
258
259
260
261
262
263
264
265
266
267
268
269
270
271
272
273
274
275
276
277
278
279
280
281
282
283
284
285
286
287
288
289
290
291
292
293
294
295
296
297
298
299
300
301
302
303
304
305
306
307
308
309
310
311
312
313
314
315
316
317
318
319
320
321
322
323
324
325
326
327
328
329
330
331
332
333
334
335
336
337
338
339
340
341
342
343
344
345
346
347
348
349
350
351
352
353
354
355
356
357
358
359
360
361
362
363
364
365
366
367
368
369
370
371
372
373
374
375
376
377
378
379
380
381
382
383
384
385
386
387
388
389
390
391
392
393
394
395
396
397
398
399
400
401
402
403
404
405
406
407
408
409
410
411
412
413
414
415
416
417
418
419
420
421
422
423
424
425
426
427
428
429
430
431
432
433
434
435
436
437
438
439
440
)



// ************************************************************************* //
