/*--------------------------------*- C++ -*----------------------------------*\
| =========                 |                                                 |
| \\      /  F ield         | OpenFOAM: The Open Source CFD Toolbox           |
|  \\    /   O peration     | Version:  2312                                  |
|   \\  /    A nd           | Website:  www.openfoam.com                      |
|    \\/     M anipulation  |                                                 |
\*---------------------------------------------------------------------------*/
FoamFile
{
    version     2.0;
    format      ascii;
    arch        "LSB;label=32;scalar=64";
    class       extendedFeatureEdgeMesh;
    location    "constant/extendedFeatureEdgeMesh";
    object      inlet.extendedFeatureEdgeMesh;
}
// * * * * * * * * * * * * * * * * * * * * * * * * * * * * * * * * * * * * * //

// points

108
(
(-283.27 -54.1968 525.908)
(-283.27 -54.1968 1130.29)
(-267.142 -54.1968 1130.29)
(-267.142 -54.1968 524.258)
(-251.013 -54.1968 1130.29)
(-251.013 -54.1968 519.844)
(-234.884 -54.1968 1130.29)
(-234.884 -54.1968 511.532)
(-218.755 -54.1968 1130.29)
(-218.755 -54.1968 504.888)
(-202.626 -54.1968 1130.29)
(-202.626 -54.1968 492.611)
(-186.497 -54.1968 1130.29)
(-186.497 -54.1968 483.381)
(-170.368 -54.1968 1130.29)
(-170.368 -54.1968 477.057)
(-154.239 -54.1968 1130.29)
(-154.239 -54.1968 474.436)
(-138.11 -54.1968 1130.29)
(-138.11 -54.1968 461.098)
(-121.981 -54.1968 1130.29)
(-121.981 -54.1968 460.717)
(-105.853 -54.1968 1130.29)
(-105.853 -54.1968 460.173)
(-89.7236 -54.1968 1130.29)
(-89.7236 -54.1968 459.885)
(-73.5948 -54.1968 1130.29)
(-73.5948 -54.1968 459.418)
(-57.4658 -54.1968 1130.29)
(-57.4658 -54.1968 458.884)
(-41.3369 -54.1968 1130.29)
(-41.3369 -54.1968 460.9)
(-25.208 -54.1968 1130.29)
(-25.208 -54.1968 456.527)
(-9.07912 -54.1968 1130.29)
(-9.07912 -54.1968 459.499)
(7.04981 -54.1968 1130.29)
(7.04981 -54.1968 460.011)
(23.1787 -54.1968 1130.29)
(23.1787 -54.1968 460.366)
(39.3076 -54.1968 1130.29)
(39.3076 -54.1968 460.857)
(55.4365 -54.1968 1130.29)
(55.4365 -54.1968 461.455)
(71.5654 -54.1968 1130.29)
(71.5654 -54.1968 461.806)
(87.6944 -54.1968 1130.29)
(87.6944 -54.1968 461.99)
(103.823 -54.1968 1130.29)
(103.823 -54.1968 461.91)
(119.952 -54.1968 1130.29)
(119.952 -54.1968 461.376)
(136.081 -54.1968 1130.29)
(136.081 -54.1968 460.543)
(152.21 -54.1968 1130.29)
(152.21 -54.1968 462.732)
(168.339 -54.1968 1130.29)
(168.339 -54.1968 463.889)
(184.468 -54.1968 1130.29)
(184.468 -54.1968 463.927)
(200.597 -54.1968 1130.29)
(200.597 -54.1968 464.611)
(216.726 -54.1968 1130.29)
(216.726 -54.1968 476.168)
(232.854 -54.1968 1130.29)
(232.854 -54.1968 485.444)
(248.983 -54.1967 1130.29)
(248.983 -54.1967 502.696)
(265.112 -54.1968 1130.29)
(265.112 -54.1968 517.026)
(281.241 -54.1968 1130.29)
(281.241 -54.1968 529.576)
(297.37 -54.1968 1130.29)
(297.37 -54.1968 543.808)
(313.499 -54.1968 1130.29)
(313.499 -54.1968 560.196)
(329.628 -54.1968 1130.29)
(329.628 -54.1968 571.962)
(345.757 -54.1968 1130.29)
(345.757 -54.1968 583.969)
(361.886 -54.1968 1130.29)
(361.886 -54.1968 596.692)
(378.015 -54.1968 1130.29)
(378.015 -54.1968 610.251)
(394.144 -54.1967 1130.29)
(394.144 -54.1967 621.813)
(410.272 -54.1968 1130.29)
(410.272 -54.1968 629.667)
(426.401 -54.1968 1130.29)
(426.401 -54.1968 638.56)
(442.53 -54.1967 1130.29)
(442.53 -54.1967 651.813)
(458.659 -54.1968 1130.29)
(458.659 -54.1968 666.492)
(474.788 -54.1968 1130.29)
(474.788 -54.1968 684.877)
(-380.044 -54.1968 589.191)
(-380.044 -54.1968 1130.29)
(-363.915 -54.1968 1130.29)
(-363.915 -54.1968 576.815)
(-347.786 -54.1968 1130.29)
(-347.786 -54.1968 566.916)
(-331.657 -54.1968 1130.29)
(-331.657 -54.1968 553.18)
(-315.528 -54.1968 1130.29)
(-315.528 -54.1968 537.585)
(-299.399 -54.1968 1130.29)
(-299.399 -54.1968 530.658)
)

// edges

213
(
(2 3)
(4 3)
(6 7)
(8 9)
(10 9)
(12 13)
(14 13)
(16 17)
(18 17)
(20 21)
(22 21)
(24 25)
(26 25)
(28 29)
(30 31)
(32 31)
(34 35)
(36 37)
(38 39)
(40 41)
(42 41)
(44 45)
(46 45)
(48 47)
(50 49)
(52 53)
(54 55)
(56 57)
(58 57)
(60 61)
(62 63)
(64 63)
(66 65)
(66 67)
(72 73)
(74 73)
(76 75)
(78 79)
(80 81)
(82 81)
(84 83)
(84 85)
(90 89)
(90 91)
(94 93)
(98 96)
(100 99)
(102 103)
(104 103)
(106 107)
(1 107)
(2 0)
(0 1)
(4 5)
(6 5)
(8 7)
(10 11)
(12 11)
(14 15)
(16 15)
(18 19)
(20 19)
(22 23)
(24 23)
(26 27)
(28 27)
(30 29)
(32 33)
(34 33)
(36 35)
(38 37)
(40 39)
(42 43)
(44 43)
(46 47)
(48 49)
(50 51)
(52 51)
(54 53)
(56 55)
(58 59)
(60 59)
(62 61)
(64 65)
(68 67)
(68 69)
(70 69)
(70 71)
(72 71)
(74 75)
(76 77)
(78 77)
(80 79)
(82 83)
(86 85)
(86 87)
(88 87)
(88 89)
(92 91)
(92 93)
(98 99)
(100 101)
(102 101)
(104 105)
(106 105)
(1 2)
(3 0)
(2 4)
(5 3)
(4 6)
(7 5)
(6 8)
(9 7)
(8 10)
(11 9)
(10 12)
(13 11)
(12 14)
(15 13)
(14 16)
(17 15)
(16 18)
(19 17)
(18 20)
(21 19)
(20 22)
(23 21)
(22 24)
(25 23)
(24 26)
(27 25)
(26 28)
(29 27)
(28 30)
(31 29)
(30 32)
(33 31)
(32 34)
(35 33)
(34 36)
(37 35)
(36 38)
(39 37)
(38 40)
(41 39)
(40 42)
(43 41)
(42 44)
(45 43)
(44 46)
(47 45)
(46 48)
(49 47)
(48 50)
(51 49)
(50 52)
(53 51)
(52 54)
(55 53)
(54 56)
(57 55)
(56 58)
(59 57)
(58 60)
(61 59)
(60 62)
(63 61)
(62 64)
(65 63)
(64 66)
(67 65)
(66 68)
(69 67)
(68 70)
(71 69)
(70 72)
(73 71)
(72 74)
(75 73)
(74 76)
(77 75)
(76 78)
(79 77)
(78 80)
(81 79)
(80 82)
(83 81)
(82 84)
(85 83)
(84 86)
(87 85)
(86 88)
(89 87)
(88 90)
(91 89)
(90 92)
(93 91)
(92 94)
(94 95)
(95 93)
(96 97)
(97 98)
(99 96)
(98 100)
(101 99)
(100 102)
(103 101)
(102 104)
(105 103)
(104 106)
(107 105)
(106 1)
(0 107)
)

// concaveStart mixedStart nonFeatureStart
0 0 108
// internalStart flatStart openStart multipleStart
0 0 105 213
// normals

106
(
(0 1 0)
(-7.07612e-07 1 1.88835e-08)
(0 1 1.88835e-08)
(1.64875e-06 1 -2.49959e-08)
(0 1 -2.49959e-08)
(-1.8794e-06 1 2.46601e-08)
(0 1 2.46601e-08)
(-2.2395e-07 1 3.04977e-08)
(0 1 3.04977e-08)
(7.18644e-07 1 1.19642e-08)
(0 1 1.19642e-08)
(-6.92667e-07 1 2.94838e-08)
(0 1 2.94838e-08)
(9.48337e-07 1 5.83968e-09)
(0 1 5.83968e-09)
(-4.70193e-07 1 1.7449e-08)
(0 1 1.7449e-08)
(1.40494e-06 1 -1.71012e-08)
(0 1 -1.71012e-08)
(-1.89143e-06 1 2.84859e-08)
(0 1 2.84859e-08)
(1.65521e-06 1 -1.13851e-08)
(0 1 -1.13851e-08)
(-7.09435e-07 1 5.6901e-09)
(0 1 5.6901e-09)
(1.64728e-10 1 5.68613e-09)
(0 1 5.68613e-09)
(-2.36136e-07 1 1.13632e-08)
(0 1 1.13632e-08)
(-1.42477e-09 1 1.13974e-08)
(0 1 1.13974e-08)
(2.38048e-07 1 5.66174e-09)
(0 1 5.66174e-09)
(-2.38609e-07 1 1.13737e-08)
(0 1 1.13737e-08)
(-3.60694e-10 1 1.13823e-08)
(0 1 1.13823e-08)
(-2.3689e-07 1 1.70826e-08)
(0 1 1.70826e-08)
(-2.37206e-07 1 2.27934e-08)
(0 1 2.27934e-08)
(4.72605e-07 1 1.14069e-08)
(0 1 1.14069e-08)
(-7.10159e-07 1 2.85323e-08)
(0 1 2.85323e-08)
(7.09408e-07 1 1.1416e-08)
(0 1 1.1416e-08)
(5.69533e-11 1 1.14147e-08)
(0 1 1.14147e-08)
(1.182e-06 1 -1.71083e-08)
(0 1 -1.71083e-08)
(-2.37102e-07 1 -1.13914e-08)
(0 1 -1.13914e-08)
(-4.73024e-07 1 0)
(0 1 0)
(-2.36924e-07 1 5.72428e-09)
(0 1 5.72428e-09)
(2.36512e-07 1 0)
(0 1 0)
(-9.47025e-07 1 2.2922e-08)
(0 1 2.2922e-08)
(-2.57408e-07 1 2.91587e-08)
(0 1 2.91587e-08)
(2.62206e-06 1 -3.54937e-08)
(-3.78421e-06 1 -3.54937e-08)
(-3.25917e-06 1 -4.86259e-08)
(3.78421e-06 1 -4.86259e-08)
(1.8921e-06 1 0)
(0 1 0)
(0 1 0)
(0 1 0)
(-9.69014e-07 1 2.60173e-08)
(0 1 2.60173e-08)
(4.59429e-07 1 1.33826e-08)
(0 1 1.33826e-08)
(1.43902e-06 1 -2.73292e-08)
(0 1 -2.73292e-08)
(-1.42947e-06 1 1.39649e-08)
(0 1 1.39649e-08)
(-4.95585e-07 1 2.85958e-08)
(0 1 2.85958e-08)
(1.91677e-06 1 -2.93414e-08)
(-3.7842e-06 1 -2.93414e-08)
(-3.27891e-06 1 -4.50127e-08)
(3.78422e-06 1 -4.50127e-08)
(1.88469e-06 1 1.52396e-08)
(0 1 1.52396e-08)
(-8.55471e-09 1 1.55153e-08)
(-3.7842e-06 1 1.55153e-08)
(-1.85279e-06 1 -4.7835e-08)
(3.7842e-06 1 -4.7835e-08)
(1.63313e-06 1 2.46745e-08)
(0 1 2.46745e-08)
(2.16989e-07 1 1.71286e-08)
(0 1 2.81994e-08)
(7.14829e-07 1 6.89221e-09)
(0 1 6.89221e-09)
(7.01227e-07 1 -1.35422e-08)
(0 1 -1.35422e-08)
(-1.39656e-06 1 2.64398e-08)
(0 1 2.64398e-08)
(9.46049e-07 1 0)
(0 1 0)
(-4.67563e-07 1 1.27233e-08)
(0 1 1.27233e-08)
(4.73023e-07 1 0)
)

// normal volume types

106
(
0
0
0
0
0
0
0
0
0
0
0
0
0
0
0
0
0
0
0
0
0
0
0
0
0
0
0
0
0
0
0
0
0
0
0
0
0
0
0
0
0
0
0
0
0
0
0
0
0
0
0
0
0
0
0
0
0
0
0
0
0
0
0
0
0
0
0
0
0
0
0
0
0
0
0
0
0
0
0
0
0
0
0
0
0
0
0
0
0
0
0
0
0
0
0
0
0
0
0
0
0
0
0
0
0
0
)

// normalDirections

213
(
2(1 -1)
2(1 -1)
2(1 -1)
2(1 -1)
2(1 -1)
2(1 -1)
2(1 -1)
2(1 -1)
2(1 -1)
2(1 -1)
2(1 -1)
2(1 -1)
2(1 -1)
2(1 -1)
2(1 -1)
2(1 -1)
2(1 -1)
2(1 -1)
2(1 -1)
2(1 -1)
2(1 -1)
2(1 -1)
2(1 -1)
2(1 -1)
2(1 -1)
2(1 -1)
2(1 -1)
2(1 -1)
2(1 -1)
2(1 -1)
2(1 -1)
2(1 -1)
2(1 -1)
2(1 -1)
2(1 -1)
2(1 -1)
2(1 -1)
2(1 -1)
2(1 -1)
2(1 -1)
2(1 -1)
2(1 -1)
2(1 -1)
2(1 -1)
2(1 -1)
2(1 -1)
2(1 -1)
2(1 -1)
2(1 -1)
2(1 -1)
2(1 -1)
2(1 -1)
2(1 -1)
2(1 -1)
2(1 -1)
2(1 -1)
2(1 -1)
2(1 -1)
2(1 -1)
2(1 -1)
2(1 -1)
2(1 -1)
2(1 -1)
2(1 -1)
2(1 -1)
2(1 -1)
2(1 -1)
2(1 -1)
2(1 -1)
2(1 -1)
2(1 -1)
2(1 -1)
2(1 -1)
2(1 -1)
2(1 -1)
2(1 -1)
2(1 -1)
2(1 -1)
2(1 -1)
2(1 -1)
2(1 -1)
2(1 -1)
2(1 -1)
2(1 -1)
2(1 -1)
2(1 -1)
2(1 -1)
2(1 -1)
2(1 -1)
2(1 -1)
2(1 -1)
2(1 -1)
2(1 -1)
2(1 -1)
2(1 -1)
2(1 -1)
2(1 -1)
2(1 -1)
2(1 -1)
2(1 -1)
2(1 -1)
2(1 -1)
2(1 -1)
2(1 -1)
2(1 -1)
1(1)
1(1)
1(1)
1(1)
1(1)
1(1)
1(1)
1(1)
1(1)
1(1)
1(1)
1(1)
1(1)
1(1)
1(1)
1(1)
1(1)
1(1)
1(1)
1(1)
1(1)
1(1)
1(1)
1(1)
1(1)
1(1)
1(1)
1(1)
1(1)
1(1)
1(1)
1(1)
1(1)
1(1)
1(1)
1(1)
1(1)
1(1)
1(1)
1(1)
1(1)
1(1)
1(1)
1(1)
1(1)
1(1)
1(1)
1(1)
1(1)
1(1)
1(1)
1(1)
1(1)
1(1)
1(1)
1(1)
1(1)
1(1)
1(1)
1(1)
1(1)
1(1)
1(1)
1(1)
1(1)
1(1)
1(1)
1(1)
1(1)
1(1)
1(1)
1(1)
1(1)
1(1)
1(1)
1(1)
1(1)
1(1)
1(1)
1(1)
1(1)
1(1)
1(1)
1(1)
1(1)
1(1)
1(1)
1(1)
1(1)
1(1)
1(1)
1(1)
1(1)
1(1)
1(1)
1(1)
1(1)
1(1)
1(1)
1(1)
1(1)
1(1)
1(1)
1(1)
1(1)
1(1)
1(1)
1(1)
)

// edgeNormals

213
(
2(1 2)
2(2 3)
2(5 6)
2(7 8)
2(8 9)
2(11 12)
2(12 13)
2(15 16)
2(16 17)
2(19 20)
2(20 21)
2(23 24)
2(24 25)
2(27 28)
2(29 30)
2(30 31)
2(33 34)
2(35 36)
2(37 38)
2(39 40)
2(40 41)
2(43 44)
2(44 45)
2(46 47)
2(48 49)
2(51 52)
2(53 54)
2(55 56)
2(56 57)
2(59 60)
2(61 62)
2(62 63)
2(64 65)
2(65 66)
2(71 72)
2(72 73)
2(74 75)
2(77 78)
2(79 80)
2(80 81)
2(82 83)
2(83 84)
2(88 89)
2(89 90)
2(92 93)
2(94 95)
2(96 97)
2(99 100)
2(100 101)
2(103 104)
2(104 105)
2(0 1)
2(0 105)
2(3 4)
2(4 5)
2(6 7)
2(9 10)
2(10 11)
2(13 14)
2(14 15)
2(17 18)
2(18 19)
2(21 22)
2(22 23)
2(25 26)
2(26 27)
2(28 29)
2(31 32)
2(32 33)
2(34 35)
2(36 37)
2(38 39)
2(41 42)
2(42 43)
2(45 46)
2(47 48)
2(49 50)
2(50 51)
2(52 53)
2(54 55)
2(57 58)
2(58 59)
2(60 61)
2(63 64)
2(66 67)
2(67 68)
2(68 69)
2(69 70)
2(70 71)
2(73 74)
2(75 76)
2(76 77)
2(78 79)
2(81 82)
2(84 85)
2(85 86)
2(86 87)
2(87 88)
2(90 91)
2(91 92)
2(95 96)
2(97 98)
2(98 99)
2(101 102)
2(102 103)
1(0)
1(1)
1(2)
1(3)
1(4)
1(5)
1(6)
1(7)
1(8)
1(9)
1(10)
1(11)
1(12)
1(13)
1(14)
1(15)
1(16)
1(17)
1(18)
1(19)
1(20)
1(21)
1(22)
1(23)
1(24)
1(25)
1(26)
1(27)
1(28)
1(29)
1(30)
1(31)
1(32)
1(33)
1(34)
1(35)
1(36)
1(37)
1(38)
1(39)
1(40)
1(41)
1(42)
1(43)
1(44)
1(45)
1(46)
1(47)
1(48)
1(49)
1(50)
1(51)
1(52)
1(53)
1(54)
1(55)
1(56)
1(57)
1(58)
1(59)
1(60)
1(61)
1(62)
1(63)
1(64)
1(65)
1(66)
1(67)
1(68)
1(69)
1(70)
1(71)
1(72)
1(73)
1(74)
1(75)
1(76)
1(77)
1(78)
1(79)
1(80)
1(81)
1(82)
1(83)
1(84)
1(85)
1(86)
1(87)
1(88)
1(89)
1(90)
1(91)
1(92)
1(93)
1(93)
1(94)
1(94)
1(95)
1(96)
1(97)
1(98)
1(99)
1(100)
1(101)
1(102)
1(103)
1(104)
1(105)
)

// featurePointNormals

108
(
1(0)
1(104)
1(1)
1(1)
1(2)
1(3)
1(5)
1(5)
1(7)
1(7)
1(8)
1(9)
1(11)
1(11)
1(12)
1(13)
1(15)
1(15)
1(16)
1(17)
1(19)
1(19)
1(20)
1(21)
1(23)
1(23)
1(24)
1(25)
1(27)
1(27)
1(29)
1(29)
1(30)
1(31)
1(33)
1(33)
1(35)
1(35)
1(37)
1(37)
1(39)
1(39)
1(40)
1(41)
1(43)
1(43)
1(44)
1(46)
1(46)
1(48)
1(48)
1(49)
1(51)
1(51)
1(53)
1(53)
1(55)
1(55)
1(56)
1(57)
1(59)
1(59)
1(61)
1(61)
1(62)
1(64)
1(64)
1(65)
1(66)
1(67)
1(68)
1(69)
1(71)
1(71)
1(72)
1(74)
1(74)
1(75)
1(77)
1(77)
1(79)
1(79)
1(80)
1(82)
1(82)
1(83)
1(84)
1(85)
1(86)
1(88)
1(88)
1(89)
1(90)
1(92)
1(92)
1(93)
1(94)
1(94)
1(94)
1(96)
1(96)
1(97)
1(99)
1(99)
1(100)
1(101)
1(103)
1(103)
)

// featurePointEdges

108
(
4(51 52 106 212)
4(52 50 105 211)
4(51 0 105 107)
4(0 1 106 108)
4(1 53 107 109)
4(53 54 108 110)
4(54 2 109 111)
4(2 55 110 112)
4(55 3 111 113)
4(3 4 112 114)
4(4 56 113 115)
4(56 57 114 116)
4(57 5 115 117)
4(5 6 116 118)
4(6 58 117 119)
4(58 59 118 120)
4(59 7 119 121)
4(7 8 120 122)
4(8 60 121 123)
4(60 61 122 124)
4(61 9 123 125)
4(9 10 124 126)
4(10 62 125 127)
4(62 63 126 128)
4(63 11 127 129)
4(11 12 128 130)
4(12 64 129 131)
4(64 65 130 132)
4(65 13 131 133)
4(13 66 132 134)
4(66 14 133 135)
4(14 15 134 136)
4(15 67 135 137)
4(67 68 136 138)
4(68 16 137 139)
4(16 69 138 140)
4(69 17 139 141)
4(17 70 140 142)
4(70 18 141 143)
4(18 71 142 144)
4(71 19 143 145)
4(19 20 144 146)
4(20 72 145 147)
4(72 73 146 148)
4(73 21 147 149)
4(21 22 148 150)
4(22 74 149 151)
4(74 23 150 152)
4(23 75 151 153)
4(75 24 152 154)
4(24 76 153 155)
4(76 77 154 156)
4(77 25 155 157)
4(25 78 156 158)
4(78 26 157 159)
4(26 79 158 160)
4(79 27 159 161)
4(27 28 160 162)
4(28 80 161 163)
4(80 81 162 164)
4(81 29 163 165)
4(29 82 164 166)
4(82 30 165 167)
4(30 31 166 168)
4(31 83 167 169)
4(83 32 168 170)
4(32 33 169 171)
4(33 84 170 172)
4(84 85 171 173)
4(85 86 172 174)
4(86 87 173 175)
4(87 88 174 176)
4(88 34 175 177)
4(34 35 176 178)
4(35 89 177 179)
4(89 36 178 180)
4(36 90 179 181)
4(90 91 180 182)
4(91 37 181 183)
4(37 92 182 184)
4(92 38 183 185)
4(38 39 184 186)
4(39 93 185 187)
4(93 40 186 188)
4(40 41 187 189)
4(41 94 188 190)
4(94 95 189 191)
4(95 96 190 192)
4(96 97 191 193)
4(97 42 192 194)
4(42 43 193 195)
4(43 98 194 196)
4(98 99 195 197)
4(99 44 196 199)
3(44 197 198)
2(198 199)
3(45 200 202)
2(200 201)
4(45 100 201 203)
4(100 46 202 204)
4(46 101 203 205)
4(101 102 204 206)
4(102 47 205 207)
4(47 48 206 208)
4(48 103 207 209)
4(103 104 208 210)
4(104 49 209 211)
4(49 50 210 212)
)

// regionEdges

108
(
105
106
107
108
109
110
111
112
113
114
115
116
117
118
119
120
121
122
123
124
125
126
127
128
129
130
131
132
133
134
135
136
137
138
139
140
141
142
143
144
145
146
147
148
149
150
151
152
153
154
155
156
157
158
159
160
161
162
163
164
165
166
167
168
169
170
171
172
173
174
175
176
177
178
179
180
181
182
183
184
185
186
187
188
189
190
191
192
193
194
195
196
197
198
199
200
201
202
203
204
205
206
207
208
209
210
211
212
)



// ************************************************************************* //
