/*--------------------------------*- C++ -*----------------------------------*\
| =========                 |                                                 |
| \\      /  F ield         | OpenFOAM: The Open Source CFD Toolbox           |
|  \\    /   O peration     | Version:  2312                                  |
|   \\  /    A nd           | Website:  www.openfoam.com                      |
|    \\/     M anipulation  |                                                 |
\*---------------------------------------------------------------------------*/
FoamFile
{
    version     2.0;
    format      ascii;
    arch        "LSB;label=32;scalar=64";
    class       extendedFeatureEdgeMesh;
    location    "constant/extendedFeatureEdgeMesh";
    object      outlet.extendedFeatureEdgeMesh;
}
// * * * * * * * * * * * * * * * * * * * * * * * * * * * * * * * * * * * * * //

// points

108
(
(-363.915 -1553.59 511.881)
(-363.915 -1553.59 1130.29)
(-380.044 -1553.59 1130.29)
(-380.044 -1553.59 512.386)
(-347.786 -1553.59 498.602)
(-347.786 -1553.59 1130.29)
(-331.657 -1553.59 501.562)
(-331.657 -1553.59 1130.29)
(-315.528 -1553.59 503.112)
(-315.528 -1553.59 1130.29)
(-299.399 -1553.59 488.986)
(-299.399 -1553.59 1130.29)
(-283.271 -1553.59 473.621)
(-283.271 -1553.59 1130.29)
(-267.142 -1553.59 466.879)
(-267.142 -1553.59 1130.29)
(-251.013 -1553.59 458.757)
(-251.013 -1553.59 1130.29)
(-234.884 -1553.59 456.323)
(-234.884 -1553.59 1130.29)
(-218.755 -1553.59 453.104)
(-218.755 -1553.59 1130.29)
(-202.626 -1553.59 457.212)
(-202.626 -1553.59 1130.29)
(-186.497 -1553.59 457.394)
(-186.497 -1553.59 1130.29)
(-170.368 -1553.59 458.222)
(-170.368 -1553.59 1130.29)
(-154.239 -1553.59 458.493)
(-154.239 -1553.59 1130.29)
(-138.11 -1553.59 458.691)
(-138.11 -1553.59 1130.29)
(-121.981 -1553.59 458.895)
(-121.981 -1553.59 1130.29)
(-105.853 -1553.59 458.82)
(-105.853 -1553.59 1130.29)
(-89.7236 -1553.59 458.909)
(-89.7236 -1553.59 1130.29)
(-73.5947 -1553.59 459.049)
(-73.5947 -1553.59 1130.29)
(-57.4658 -1553.59 459.219)
(-57.4658 -1553.59 1130.29)
(-41.3369 -1553.59 459.294)
(-41.3369 -1553.59 1130.29)
(-25.208 -1553.59 459.526)
(-25.208 -1553.59 1130.29)
(-9.07913 -1553.59 460.931)
(-9.07913 -1553.59 1130.29)
(7.04978 -1553.59 461.178)
(7.04978 -1553.59 1130.29)
(23.1787 -1553.59 462.2)
(23.1787 -1553.59 1130.29)
(39.3076 -1553.59 462.117)
(39.3076 -1553.59 1130.29)
(55.4365 -1553.59 461.907)
(55.4365 -1553.59 1130.29)
(71.5654 -1553.59 462.059)
(71.5654 -1553.59 1130.29)
(87.6944 -1553.59 466.121)
(87.6944 -1553.59 1130.29)
(103.823 -1553.59 467.873)
(103.823 -1553.59 1130.29)
(119.952 -1553.59 469.429)
(119.952 -1553.59 1130.29)
(136.081 -1553.59 471.64)
(136.081 -1553.59 1130.29)
(152.21 -1553.59 471.786)
(152.21 -1553.59 1130.29)
(168.339 -1553.59 471.804)
(168.339 -1553.59 1130.29)
(184.468 -1553.59 472.665)
(184.468 -1553.59 1130.29)
(200.597 -1553.59 472.288)
(200.597 -1553.59 1130.29)
(216.726 -1553.59 473.323)
(216.726 -1553.59 1130.29)
(232.855 -1553.59 471.117)
(232.855 -1553.59 1130.29)
(248.983 -1553.59 470.091)
(248.983 -1553.59 1130.29)
(265.112 -1553.59 470.222)
(265.112 -1553.59 1130.29)
(281.241 -1553.59 468.74)
(281.241 -1553.59 1130.29)
(297.37 -1553.59 467.082)
(297.37 -1553.59 1130.29)
(313.499 -1553.59 469.825)
(313.499 -1553.59 1130.29)
(329.628 -1553.59 471.343)
(329.628 -1553.59 1130.29)
(345.757 -1553.59 472.901)
(345.757 -1553.59 1130.29)
(361.886 -1553.59 478.508)
(361.886 -1553.59 1130.29)
(378.015 -1553.59 478.757)
(378.015 -1553.59 1130.29)
(394.144 -1553.59 477.631)
(394.144 -1553.59 1130.29)
(410.272 -1553.59 475.047)
(410.272 -1553.59 1130.29)
(426.401 -1553.59 469.202)
(426.401 -1553.59 1130.29)
(442.53 -1553.59 463.58)
(442.53 -1553.59 1130.29)
(458.659 -1553.59 470.691)
(458.659 -1553.59 1130.29)
(474.788 -1553.59 478.993)
(474.788 -1553.59 1130.29)
)

// edges

213
(
(0 1)
(4 5)
(5 6)
(10 11)
(13 14)
(14 15)
(15 16)
(21 22)
(22 23)
(28 29)
(35 36)
(37 38)
(38 39)
(39 40)
(41 42)
(42 43)
(43 44)
(50 51)
(57 58)
(58 59)
(60 61)
(63 64)
(64 65)
(67 68)
(68 69)
(70 71)
(71 72)
(75 76)
(76 77)
(81 82)
(82 83)
(83 84)
(89 90)
(90 91)
(94 95)
(96 97)
(2 0)
(1 4)
(6 7)
(7 8)
(8 9)
(9 10)
(11 12)
(12 13)
(16 17)
(17 18)
(18 19)
(19 20)
(20 21)
(23 24)
(24 25)
(25 26)
(26 27)
(27 28)
(29 30)
(30 31)
(31 32)
(32 33)
(33 34)
(34 35)
(36 37)
(40 41)
(44 45)
(45 46)
(46 47)
(47 48)
(48 49)
(49 50)
(51 52)
(52 53)
(53 54)
(54 55)
(55 56)
(56 57)
(59 60)
(61 62)
(62 63)
(65 66)
(66 67)
(69 70)
(72 73)
(73 74)
(74 75)
(77 78)
(78 79)
(79 80)
(80 81)
(84 85)
(85 86)
(86 87)
(87 88)
(88 89)
(91 92)
(92 93)
(93 94)
(95 96)
(97 98)
(98 99)
(99 100)
(100 101)
(101 102)
(102 103)
(103 104)
(104 105)
(105 106)
(1 2)
(2 3)
(3 0)
(5 1)
(0 4)
(7 5)
(4 6)
(9 7)
(6 8)
(11 9)
(8 10)
(13 11)
(10 12)
(15 13)
(12 14)
(17 15)
(14 16)
(19 17)
(16 18)
(21 19)
(18 20)
(23 21)
(20 22)
(25 23)
(22 24)
(27 25)
(24 26)
(29 27)
(26 28)
(31 29)
(28 30)
(33 31)
(30 32)
(35 33)
(32 34)
(37 35)
(34 36)
(39 37)
(36 38)
(41 39)
(38 40)
(43 41)
(40 42)
(45 43)
(42 44)
(47 45)
(44 46)
(49 47)
(46 48)
(51 49)
(48 50)
(53 51)
(50 52)
(55 53)
(52 54)
(57 55)
(54 56)
(59 57)
(56 58)
(61 59)
(58 60)
(63 61)
(60 62)
(65 63)
(62 64)
(67 65)
(64 66)
(69 67)
(66 68)
(71 69)
(68 70)
(73 71)
(70 72)
(75 73)
(72 74)
(77 75)
(74 76)
(79 77)
(76 78)
(81 79)
(78 80)
(83 81)
(80 82)
(85 83)
(82 84)
(87 85)
(84 86)
(89 87)
(86 88)
(91 89)
(88 90)
(93 91)
(90 92)
(95 93)
(92 94)
(97 95)
(94 96)
(99 97)
(96 98)
(101 99)
(98 100)
(103 101)
(100 102)
(105 103)
(102 104)
(106 107)
(107 105)
(104 106)
)

// concaveStart mixedStart nonFeatureStart
0 0 108
// internalStart flatStart openStart multipleStart
0 0 105 213
// normals

106
(
(-1.51369e-05 -1 0)
(-1.51369e-05 -1 0)
(7.56843e-06 -1 0)
(7.56843e-06 -1 0)
(1.51368e-05 -1 0)
(1.51368e-05 -1 0)
(0 -1 0)
(-0 -1 0)
(-2.27053e-05 -1 0)
(-2.27053e-05 -1 0)
(0 -1 0)
(0 -1 0)
(-7.5684e-06 -1 0)
(-7.5684e-06 -1 0)
(1.51368e-05 -1 0)
(1.51368e-05 -1 0)
(0 -1 0)
(0 -1 0)
(0 -1 0)
(0 -1 0)
(-7.5684e-06 -1 0)
(-7.56841e-06 -1 -1.70535e-13)
(7.56843e-06 -1 0)
(7.56843e-06 -1 0)
(0 -1 0)
(-0 -1 0)
(0 -1 0)
(-0 -1 0)
(7.56838e-06 -1 0)
(7.56838e-06 -1 0)
(0 -1 0)
(-0 -1 0)
(0 -1 0)
(0 -1 0)
(-7.5684e-06 -1 0)
(-7.56841e-06 -1 -8.59933e-14)
(-7.56843e-06 -1 0)
(-7.56843e-06 -1 0)
(1.51368e-05 -1 0)
(1.51368e-05 -1 0)
(-1.51368e-05 -1 8.6054e-14)
(-1.51368e-05 -1 0)
(1.51368e-05 -1 0)
(1.51368e-05 -1 -8.60542e-14)
(0 -1 0)
(-0 -1 0)
(0 -1 0)
(-0 -1 0)
(-1.51368e-05 -1 0)
(-1.51368e-05 -1 0)
(7.56843e-06 -1 0)
(7.56843e-06 -1 0)
(0 -1 0)
(0 -1 0)
(0 -1 0)
(-0 -1 0)
(-7.5684e-06 -1 0)
(-7.5684e-06 -1 0)
(7.56843e-06 -1 0)
(7.56843e-06 -1 0)
(7.56844e-06 -1 0)
(7.56844e-06 -1 0)
(-7.56843e-06 -1 0)
(-7.56843e-06 -1 0)
(0 -1 0)
(-0 -1 0)
(-7.56838e-06 -1 0)
(-7.56838e-06 -1 0)
(0 -1 0)
(-0 -1 0)
(1.51369e-05 -1 0)
(1.51369e-05 -1 0)
(0 -1 0)
(-0 -1 0)
(-7.5684e-06 -1 0)
(-7.5684e-06 -1 0)
(0 -1 0)
(0 -1 0)
(0 -1 0)
(-0 -1 0)
(-7.56845e-06 -1 0)
(-7.56845e-06 -1 0)
(1.51369e-05 -1 0)
(1.51369e-05 -1 0)
(0 -1 0)
(-0 -1 0)
(0 -1 0)
(-0 -1 0)
(-7.56836e-06 -1 0)
(-7.56836e-06 -1 0)
(7.56843e-06 -1 0)
(7.56843e-06 -1 0)
(-1.51368e-05 -1 0)
(-1.51368e-05 -1 0)
(7.5684e-06 -1 0)
(7.5684e-06 -1 0)
(7.56843e-06 -1 0)
(7.56843e-06 -1 0)
(0 -1 0)
(0 -1 0)
(0 -1 0)
(0 -1 0)
(0 -1 0)
(-0 -1 0)
(-1.51368e-05 -1 0)
(-1.51368e-05 -1 0)
)

// normal volume types

106
(
0
0
0
0
0
0
0
0
0
0
0
0
0
0
0
0
0
0
0
0
0
0
0
0
0
0
0
0
0
0
0
0
0
0
0
0
0
0
0
0
0
0
0
0
0
0
0
0
0
0
0
0
0
0
0
0
0
0
0
0
0
0
0
0
0
0
0
0
0
0
0
0
0
0
0
0
0
0
0
0
0
0
0
0
0
0
0
0
0
0
0
0
0
0
0
0
0
0
0
0
0
0
0
0
0
0
)

// normalDirections

213
(
2(1 -1)
2(1 -1)
2(1 -1)
2(1 -1)
2(1 -1)
2(1 -1)
2(1 -1)
2(1 -1)
2(1 -1)
2(1 -1)
2(1 -1)
2(1 -1)
2(1 -1)
2(1 -1)
2(1 -1)
2(1 -1)
2(1 -1)
2(1 -1)
2(1 -1)
2(1 -1)
2(1 -1)
2(1 -1)
2(1 -1)
2(1 -1)
2(1 -1)
2(1 -1)
2(1 -1)
2(1 -1)
2(1 -1)
2(1 -1)
2(1 -1)
2(1 -1)
2(1 -1)
2(1 -1)
2(1 -1)
2(1 -1)
2(1 -1)
2(1 -1)
2(1 -1)
2(1 -1)
2(1 -1)
2(1 -1)
2(1 -1)
2(1 -1)
2(1 -1)
2(1 -1)
2(1 -1)
2(1 -1)
2(1 -1)
2(1 -1)
2(1 -1)
2(1 -1)
2(1 -1)
2(1 -1)
2(1 -1)
2(1 -1)
2(1 -1)
2(1 -1)
2(1 -1)
2(1 -1)
2(1 -1)
2(1 -1)
2(1 -1)
2(1 -1)
2(1 -1)
2(1 -1)
2(1 -1)
2(1 -1)
2(1 -1)
2(1 -1)
2(1 -1)
2(1 -1)
2(1 -1)
2(1 -1)
2(1 -1)
2(1 -1)
2(1 -1)
2(1 -1)
2(1 -1)
2(1 -1)
2(1 -1)
2(1 -1)
2(1 -1)
2(1 -1)
2(1 -1)
2(1 -1)
2(1 -1)
2(1 -1)
2(1 -1)
2(1 -1)
2(1 -1)
2(1 -1)
2(1 -1)
2(1 -1)
2(1 -1)
2(1 -1)
2(1 -1)
2(1 -1)
2(1 -1)
2(1 -1)
2(1 -1)
2(1 -1)
2(1 -1)
2(1 -1)
2(1 -1)
1(1)
1(1)
1(1)
1(1)
1(1)
1(1)
1(1)
1(1)
1(1)
1(1)
1(1)
1(1)
1(1)
1(1)
1(1)
1(1)
1(1)
1(1)
1(1)
1(1)
1(1)
1(1)
1(1)
1(1)
1(1)
1(1)
1(1)
1(1)
1(1)
1(1)
1(1)
1(1)
1(1)
1(1)
1(1)
1(1)
1(1)
1(1)
1(1)
1(1)
1(1)
1(1)
1(1)
1(1)
1(1)
1(1)
1(1)
1(1)
1(1)
1(1)
1(1)
1(1)
1(1)
1(1)
1(1)
1(1)
1(1)
1(1)
1(1)
1(1)
1(1)
1(1)
1(1)
1(1)
1(1)
1(1)
1(1)
1(1)
1(1)
1(1)
1(1)
1(1)
1(1)
1(1)
1(1)
1(1)
1(1)
1(1)
1(1)
1(1)
1(1)
1(1)
1(1)
1(1)
1(1)
1(1)
1(1)
1(1)
1(1)
1(1)
1(1)
1(1)
1(1)
1(1)
1(1)
1(1)
1(1)
1(1)
1(1)
1(1)
1(1)
1(1)
1(1)
1(1)
1(1)
1(1)
1(1)
1(1)
)

// edgeNormals

213
(
2(0 3)
2(2 5)
2(4 5)
2(8 11)
2(12 13)
2(12 15)
2(14 15)
2(20 21)
2(20 23)
2(26 29)
2(34 35)
2(36 37)
2(36 39)
2(38 39)
2(40 41)
2(40 43)
2(42 43)
2(48 51)
2(56 57)
2(56 59)
2(58 61)
2(62 63)
2(62 65)
2(66 67)
2(66 69)
2(68 71)
2(70 71)
2(74 75)
2(74 77)
2(80 81)
2(80 83)
2(82 83)
2(88 89)
2(88 91)
2(92 95)
2(94 97)
2(0 1)
2(2 3)
2(4 7)
2(6 7)
2(6 9)
2(8 9)
2(10 11)
2(10 13)
2(14 17)
2(16 17)
2(16 19)
2(18 19)
2(18 21)
2(22 23)
2(22 25)
2(24 25)
2(24 27)
2(26 27)
2(28 29)
2(28 31)
2(30 31)
2(30 33)
2(32 33)
2(32 35)
2(34 37)
2(38 41)
2(42 45)
2(44 45)
2(44 47)
2(46 47)
2(46 49)
2(48 49)
2(50 51)
2(50 53)
2(52 53)
2(52 55)
2(54 55)
2(54 57)
2(58 59)
2(60 61)
2(60 63)
2(64 65)
2(64 67)
2(68 69)
2(70 73)
2(72 73)
2(72 75)
2(76 77)
2(76 79)
2(78 79)
2(78 81)
2(82 85)
2(84 85)
2(84 87)
2(86 87)
2(86 89)
2(90 91)
2(90 93)
2(92 93)
2(94 95)
2(96 97)
2(96 99)
2(98 99)
2(98 101)
2(100 101)
2(100 103)
2(102 103)
2(102 105)
2(104 105)
1(0)
1(1)
1(1)
1(2)
1(3)
1(4)
1(5)
1(6)
1(7)
1(8)
1(9)
1(10)
1(11)
1(12)
1(13)
1(14)
1(15)
1(16)
1(17)
1(18)
1(19)
1(20)
1(21)
1(22)
1(23)
1(24)
1(25)
1(26)
1(27)
1(28)
1(29)
1(30)
1(31)
1(32)
1(33)
1(34)
1(35)
1(36)
1(37)
1(38)
1(39)
1(40)
1(41)
1(42)
1(43)
1(44)
1(45)
1(46)
1(47)
1(48)
1(49)
1(50)
1(51)
1(52)
1(53)
1(54)
1(55)
1(56)
1(57)
1(58)
1(59)
1(60)
1(61)
1(62)
1(63)
1(64)
1(65)
1(66)
1(67)
1(68)
1(69)
1(70)
1(71)
1(72)
1(73)
1(74)
1(75)
1(76)
1(77)
1(78)
1(79)
1(80)
1(81)
1(82)
1(83)
1(84)
1(85)
1(86)
1(87)
1(88)
1(89)
1(90)
1(91)
1(92)
1(93)
1(94)
1(95)
1(96)
1(97)
1(98)
1(99)
1(100)
1(101)
1(102)
1(103)
1(104)
1(104)
1(105)
)

// featurePointNormals

108
(
1(0)
1(0)
1(0)
1(1)
1(2)
1(2)
1(4)
1(4)
1(6)
1(6)
1(8)
1(8)
1(10)
1(12)
1(12)
1(12)
1(14)
1(14)
1(16)
1(16)
1(18)
1(20)
1(20)
1(20)
1(22)
1(22)
1(24)
1(24)
1(26)
1(26)
1(28)
1(28)
1(30)
1(30)
1(32)
1(34)
1(34)
1(36)
1(36)
1(36)
1(38)
1(40)
1(40)
1(40)
1(42)
1(42)
1(44)
1(44)
1(46)
1(46)
1(48)
1(48)
1(50)
1(50)
1(52)
1(52)
1(54)
1(56)
1(56)
1(56)
1(58)
1(58)
1(60)
1(62)
1(62)
1(62)
1(64)
1(66)
1(66)
1(66)
1(68)
1(68)
1(70)
1(70)
1(72)
1(74)
1(74)
1(74)
1(76)
1(76)
1(78)
1(80)
1(80)
1(80)
1(82)
1(82)
1(84)
1(84)
1(86)
1(88)
1(88)
1(88)
1(90)
1(90)
1(92)
1(92)
1(94)
1(94)
1(96)
1(96)
1(98)
1(98)
1(100)
1(100)
1(102)
1(102)
1(104)
1(104)
)

// featurePointEdges

108
(
4(36 0 107 109)
4(0 37 105 108)
3(36 105 106)
2(106 107)
4(37 1 109 111)
4(1 2 108 110)
4(2 38 111 113)
4(38 39 110 112)
4(39 40 113 115)
4(40 41 112 114)
4(41 3 115 117)
4(3 42 114 116)
4(42 43 117 119)
4(43 4 116 118)
4(4 5 119 121)
4(5 6 118 120)
4(6 44 121 123)
4(44 45 120 122)
4(45 46 123 125)
4(46 47 122 124)
4(47 48 125 127)
4(48 7 124 126)
4(7 8 127 129)
4(8 49 126 128)
4(49 50 129 131)
4(50 51 128 130)
4(51 52 131 133)
4(52 53 130 132)
4(53 9 133 135)
4(9 54 132 134)
4(54 55 135 137)
4(55 56 134 136)
4(56 57 137 139)
4(57 58 136 138)
4(58 59 139 141)
4(59 10 138 140)
4(10 60 141 143)
4(60 11 140 142)
4(11 12 143 145)
4(12 13 142 144)
4(13 61 145 147)
4(61 14 144 146)
4(14 15 147 149)
4(15 16 146 148)
4(16 62 149 151)
4(62 63 148 150)
4(63 64 151 153)
4(64 65 150 152)
4(65 66 153 155)
4(66 67 152 154)
4(67 17 155 157)
4(17 68 154 156)
4(68 69 157 159)
4(69 70 156 158)
4(70 71 159 161)
4(71 72 158 160)
4(72 73 161 163)
4(73 18 160 162)
4(18 19 163 165)
4(19 74 162 164)
4(74 20 165 167)
4(20 75 164 166)
4(75 76 167 169)
4(76 21 166 168)
4(21 22 169 171)
4(22 77 168 170)
4(77 78 171 173)
4(78 23 170 172)
4(23 24 173 175)
4(24 79 172 174)
4(79 25 175 177)
4(25 26 174 176)
4(26 80 177 179)
4(80 81 176 178)
4(81 82 179 181)
4(82 27 178 180)
4(27 28 181 183)
4(28 83 180 182)
4(83 84 183 185)
4(84 85 182 184)
4(85 86 185 187)
4(86 29 184 186)
4(29 30 187 189)
4(30 31 186 188)
4(31 87 189 191)
4(87 88 188 190)
4(88 89 191 193)
4(89 90 190 192)
4(90 91 193 195)
4(91 32 192 194)
4(32 33 195 197)
4(33 92 194 196)
4(92 93 197 199)
4(93 94 196 198)
4(94 34 199 201)
4(34 95 198 200)
4(95 35 201 203)
4(35 96 200 202)
4(96 97 203 205)
4(97 98 202 204)
4(98 99 205 207)
4(99 100 204 206)
4(100 101 207 209)
4(101 102 206 208)
4(102 103 209 212)
4(103 104 208 211)
3(104 210 212)
2(210 211)
)

// regionEdges

108
(
105
106
107
108
109
110
111
112
113
114
115
116
117
118
119
120
121
122
123
124
125
126
127
128
129
130
131
132
133
134
135
136
137
138
139
140
141
142
143
144
145
146
147
148
149
150
151
152
153
154
155
156
157
158
159
160
161
162
163
164
165
166
167
168
169
170
171
172
173
174
175
176
177
178
179
180
181
182
183
184
185
186
187
188
189
190
191
192
193
194
195
196
197
198
199
200
201
202
203
204
205
206
207
208
209
210
211
212
)



// ************************************************************************* //
