FoamFile
{
    version     2.0;
    format      ascii;
    class       polyBoundaryMesh;
    location    "constant/polyMesh";
    object      boundary;
}

7
(
Ymin
{
    type patch;
    nFaces 1;
    startFace 8;
}
Zmin
{
    type patch;
    nFaces 2;
    startFace 9;
}
Xmin
{
    type patch;
    nFaces 5;
    startFace 11;
}
Zmax
{
    type patch;
    nFaces 5;
    startFace 16;
}
Xmax
{
    type patch;
    nFaces 5;
    startFace 21;
}
Ymax
{
    type patch;
    nFaces 3;
    startFace 26;
}
aggregate
{
    type patch;
    nFaces 6;
    startFace 29;
}
)
