FoamFile
{
    version     2.0;
    format      ascii;
    class       polyBoundaryMesh;
    location    "constant/polyMesh";
    object      boundary;
}

6
(
Xmax
{
    type patch;
    nFaces 1;
    startFace 0;
}
Xmin
{
    type patch;
    nFaces 1;
    startFace 1;
}
Ymin
{
    type patch;
    nFaces 1;
    startFace 2;
}
Zmax
{
    type patch;
    nFaces 1;
    startFace 3;
}
Ymax
{
    type patch;
    nFaces 1;
    startFace 4;
}
Zmin
{
    type patch;
    nFaces 1;
    startFace 5;
}
)
