FoamFile
{
    version     2.0;
    format      ascii;
    class       polyBoundaryMesh;
    location    "constant/polyMesh";
    object      boundary;
}

6
(
Zmin
{
    type patch;
    nFaces 4;
    startFace 4;
}
Zmax
{
    type patch;
    nFaces 4;
    startFace 8;
}
Xmin
{
    type patch;
    nFaces 2;
    startFace 12;
}
Ymin
{
    type patch;
    nFaces 2;
    startFace 14;
}
Ymax
{
    type patch;
    nFaces 2;
    startFace 16;
}
Xmax
{
    type patch;
    nFaces 2;
    startFace 18;
}
)
