FoamFile
{
    version     2.0;
    format      ascii;
    class       polyBoundaryMesh;
    location    "constant/polyMesh";
    object      boundary;
}

7
(
Ymin
{
    type patch;
    nFaces 2;
    startFace 18;
}
Zmin
{
    type patch;
    nFaces 3;
    startFace 20;
}
Xmin
{
    type patch;
    nFaces 5;
    startFace 23;
}
Zmax
{
    type patch;
    nFaces 7;
    startFace 28;
}
Ymax
{
    type patch;
    nFaces 6;
    startFace 35;
}
aggregate
{
    type patch;
    nFaces 8;
    startFace 41;
}
Xmax
{
    type patch;
    nFaces 2;
    startFace 49;
}
)
