FoamFile
{
    version     2.0;
    format      ascii;
    class       polyBoundaryMesh;
    location    "constant/polyMesh";
    object      boundary;
}

7
(
aggregate
{
    type wall;
    nFaces 27;
    startFace 0;
}
YZ-Xmin
{
    type wall;
    nFaces 5;
    startFace 27;
}
XY-Zmax
{
    type wall;
    nFaces 4;
    startFace 32;
}
XZ-Ymax
{
    type patch;
    nFaces 2;
    startFace 36;
}
YZ-Xmax
{
    type wall;
    nFaces 1;
    startFace 38;
}
XZ-Ymin
{
    type wall;
    nFaces 1;
    startFace 39;
}
XY-Zmin
{
    type wall;
    nFaces 2;
    startFace 40;
}
)
