FoamFile
{
    version     2.0;
    format      ascii;
    class       polyBoundaryMesh;
    location    "constant/polyMesh";
    object      boundary;
}

6
(
Ymin
{
    type patch;
    nFaces 2;
    startFace 2;
}
Zmin
{
    type patch;
    nFaces 2;
    startFace 4;
}
Xmin
{
    type patch;
    nFaces 1;
    startFace 6;
}
Zmax
{
    type patch;
    nFaces 2;
    startFace 7;
}
Ymax
{
    type patch;
    nFaces 2;
    startFace 9;
}
Xmax
{
    type patch;
    nFaces 1;
    startFace 11;
}
)
