FoamFile
{
    version     2.0;
    format      ascii;
    class       polyBoundaryMesh;
    location    "constant/polyMesh";
    object      boundary;
}

7
(
Xmin
{
    type patch;
    nFaces 4;
    startFace 8;
}
aggregate
{
    type patch;
    nFaces 6;
    startFace 12;
}
Xmax
{
    type patch;
    nFaces 5;
    startFace 18;
}
Ymax
{
    type patch;
    nFaces 4;
    startFace 23;
}
Zmax
{
    type patch;
    nFaces 4;
    startFace 27;
}
Ymin
{
    type patch;
    nFaces 1;
    startFace 31;
}
Zmin
{
    type patch;
    nFaces 2;
    startFace 32;
}
)
